PyDSS/api/src/tmp_pydss_project/project1/DSSfiles/218672ac-d416-4e9f-8578-0d2a531aa33c_distribution_federate/Transformers.dss
New Transformer.tr(r:p1rdt1680-p1rdt1680lv) phases=3 windings=2 %loadloss=1.82396 %Noloadloss=0.325 normhkva=330.0 wdg=1 conn=wye Kv=12.47 kva=300.0 EmergHKVA=450.0 %R=0.91198 bus=p1rdt1680 wdg=2 conn=wye Kv=0.48 kva=300.0 EmergHKVA=450.0 %R=0.91198 bus=p1rdt1680lv XHL=3.7599999999999993

New Transformer.tr(r:p1rdt1681-p1rdt1681lv) phases=1 windings=3 %loadloss=0.798816 %Noloadloss=0.472 normhkva=27.5 wdg=1 conn=wye bus=p1rdt1681.1 Kv=7.2 kva=25.0 EmergHKVA=37.5 %r=0.266272 wdg=2 conn=wye bus=p1rdt1681lv.1.0 Kv=0.12 kva=25.0 EmergHKVA=37.5 %r=0.532544 wdg=3 conn=wye bus=p1rdt1681lv.0.2 Kv=0.12 kva=25.0 EmergHKVA=37.5 %r=0.532544 XHL=2.4 XLT=2.4 XHT=1.6

New Transformer.tr(r:p1rdt1682-p1rdt1682lv) phases=3 windings=2 %loadloss=2.1568 %Noloadloss=0.516667 normhkva=165.0 wdg=1 conn=wye Kv=12.47 kva=150.0 EmergHKVA=225.0 %R=1.0784 bus=p1rdt1682 wdg=2 conn=wye Kv=0.48 kva=150.0 EmergHKVA=225.0 %R=1.0784 bus=p1rdt1682lv XHL=3.39

New Transformer.tr(r:p1rdt1683-p1rdt1683lv) phases=1 windings=3 %loadloss=0.798816 %Noloadloss=0.37 normhkva=55.0 wdg=1 conn=wye bus=p1rdt1683.3 Kv=7.2 kva=50.0 EmergHKVA=75.0 %r=0.266272 wdg=2 conn=wye bus=p1rdt1683lv.1.0 Kv=0.12 kva=50.0 EmergHKVA=75.0 %r=0.532544 wdg=3 conn=wye bus=p1rdt1683lv.0.2 Kv=0.12 kva=50.0 EmergHKVA=75.0 %r=0.532544 XHL=2.4 XLT=2.4 XHT=1.6

New Transformer.tr(r:p1rdt1684-p1rdt1684lv) phases=1 windings=3 %loadloss=0.798816 %Noloadloss=0.472 normhkva=27.5 wdg=1 conn=wye bus=p1rdt1684.1 Kv=7.2 kva=25.0 EmergHKVA=37.5 %r=0.266272 wdg=2 conn=wye bus=p1rdt1684lv.1.0 Kv=0.12 kva=25.0 EmergHKVA=37.5 %r=0.532544 wdg=3 conn=wye bus=p1rdt1684lv.0.2 Kv=0.12 kva=25.0 EmergHKVA=37.5 %r=0.532544 XHL=2.4 XLT=2.4 XHT=1.6

New Transformer.tr(r:p1rdt1685-p1rdt1685lv) phases=3 windings=2 %loadloss=1.61095 %Noloadloss=0.62 normhkva=110.0 wdg=1 conn=wye Kv=12.47 kva=100.0 EmergHKVA=150.0 %R=0.805475 bus=p1rdt1685 wdg=2 conn=wye Kv=0.48 kva=100.0 EmergHKVA=150.0 %R=0.805475 bus=p1rdt1685lv XHL=3.29

New Transformer.tr(r:p1rdt1686-p1rdt1686lv) phases=1 windings=3 %loadloss=0.49926 %Noloadloss=0.38 normhkva=82.5 wdg=1 conn=wye bus=p1rdt1686.3 Kv=7.2 kva=75.0 EmergHKVA=112.5 %r=0.16642 wdg=2 conn=wye bus=p1rdt1686lv.1.0 Kv=0.12 kva=75.0 EmergHKVA=112.5 %r=0.33284 wdg=3 conn=wye bus=p1rdt1686lv.0.2 Kv=0.12 kva=75.0 EmergHKVA=112.5 %r=0.33284 XHL=2.4 XLT=2.4 XHT=1.6

New Transformer.tr(r:p1rdt1687-p1rdt1687lv) phases=1 windings=3 %loadloss=0.798816 %Noloadloss=0.37 normhkva=55.0 wdg=1 conn=wye bus=p1rdt1687.2 Kv=7.2 kva=50.0 EmergHKVA=75.0 %r=0.266272 wdg=2 conn=wye bus=p1rdt1687lv.1.0 Kv=0.12 kva=50.0 EmergHKVA=75.0 %r=0.532544 wdg=3 conn=wye bus=p1rdt1687lv.0.2 Kv=0.12 kva=50.0 EmergHKVA=75.0 %r=0.532544 XHL=2.4 XLT=2.4 XHT=1.6

New Transformer.tr(r:p1rdt1688-p1rdt1688lv) phases=1 windings=3 %loadloss=0.49926 %Noloadloss=0.38 normhkva=82.5 wdg=1 conn=wye bus=p1rdt1688.2 Kv=7.2 kva=75.0 EmergHKVA=112.5 %r=0.16642 wdg=2 conn=wye bus=p1rdt1688lv.1.0 Kv=0.12 kva=75.0 EmergHKVA=112.5 %r=0.33284 wdg=3 conn=wye bus=p1rdt1688lv.0.2 Kv=0.12 kva=75.0 EmergHKVA=112.5 %r=0.33284 XHL=2.4 XLT=2.4 XHT=1.6

New Transformer.tr(r:p1rdt1689-p1rdt1689lv) phases=1 windings=3 %loadloss=0.798816 %Noloadloss=0.472 normhkva=27.5 wdg=1 conn=wye bus=p1rdt1689.2 Kv=7.2 kva=25.0 EmergHKVA=37.5 %r=0.266272 wdg=2 conn=wye bus=p1rdt1689lv.1.0 Kv=0.12 kva=25.0 EmergHKVA=37.5 %r=0.532544 wdg=3 conn=wye bus=p1rdt1689lv.0.2 Kv=0.12 kva=25.0 EmergHKVA=37.5 %r=0.532544 XHL=2.4 XLT=2.4 XHT=1.6

New Transformer.tr(r:p1rdt1690-p1rdt1690lv) phases=1 windings=3 %loadloss=1.248151 %Noloadloss=0.68 normhkva=11.0 wdg=1 conn=wye bus=p1rdt1690.1 Kv=7.2 kva=10.0 EmergHKVA=15.0 %r=0.41605 wdg=2 conn=wye bus=p1rdt1690lv.1.0 Kv=0.12 kva=10.0 EmergHKVA=15.0 %r=0.832101 wdg=3 conn=wye bus=p1rdt1690lv.0.2 Kv=0.12 kva=10.0 EmergHKVA=15.0 %r=0.832101 XHL=1.08 XLT=1.08 XHT=0.72

New Transformer.tr(r:p1rdt1691-p1rdt1691lv) phases=1 windings=3 %loadloss=1.248151 %Noloadloss=0.68 normhkva=11.0 wdg=1 conn=wye bus=p1rdt1691.1 Kv=7.2 kva=10.0 EmergHKVA=15.0 %r=0.41605 wdg=2 conn=wye bus=p1rdt1691lv.1.0 Kv=0.12 kva=10.0 EmergHKVA=15.0 %r=0.832101 wdg=3 conn=wye bus=p1rdt1691lv.0.2 Kv=0.12 kva=10.0 EmergHKVA=15.0 %r=0.832101 XHL=1.08 XLT=1.08 XHT=0.72

New Transformer.tr(r:p1rdt1692-p1rdt1692lv) phases=1 windings=3 %loadloss=1.248151 %Noloadloss=0.68 normhkva=11.0 wdg=1 conn=wye bus=p1rdt1692.3 Kv=7.2 kva=10.0 EmergHKVA=15.0 %r=0.41605 wdg=2 conn=wye bus=p1rdt1692lv.1.0 Kv=0.12 kva=10.0 EmergHKVA=15.0 %r=0.832101 wdg=3 conn=wye bus=p1rdt1692lv.0.2 Kv=0.12 kva=10.0 EmergHKVA=15.0 %r=0.832101 XHL=1.08 XLT=1.08 XHT=0.72

New Transformer.tr(r:p1rdt2110-p1rdt2110lv) phases=1 windings=3 %loadloss=0.798816 %Noloadloss=0.472 normhkva=27.5 wdg=1 conn=wye bus=p1rdt2110.1 Kv=7.2 kva=25.0 EmergHKVA=37.5 %r=0.266272 wdg=2 conn=wye bus=p1rdt2110lv.1.0 Kv=0.12 kva=25.0 EmergHKVA=37.5 %r=0.532544 wdg=3 conn=wye bus=p1rdt2110lv.0.2 Kv=0.12 kva=25.0 EmergHKVA=37.5 %r=0.532544 XHL=2.4 XLT=2.4 XHT=1.6

New Transformer.tr(r:p1rdt2111-p1rdt2111lv) phases=1 windings=3 %loadloss=1.248151 %Noloadloss=0.68 normhkva=11.0 wdg=1 conn=wye bus=p1rdt2111.1 Kv=7.2 kva=10.0 EmergHKVA=15.0 %r=0.41605 wdg=2 conn=wye bus=p1rdt2111lv.1.0 Kv=0.12 kva=10.0 EmergHKVA=15.0 %r=0.832101 wdg=3 conn=wye bus=p1rdt2111lv.0.2 Kv=0.12 kva=10.0 EmergHKVA=15.0 %r=0.832101 XHL=1.08 XLT=1.08 XHT=0.72

New Transformer.tr(r:p1rdt2985-p1rdt2985lv) phases=1 windings=3 %loadloss=1.248151 %Noloadloss=0.68 normhkva=11.0 wdg=1 conn=wye bus=p1rdt2985.1 Kv=7.2 kva=10.0 EmergHKVA=15.0 %r=0.41605 wdg=2 conn=wye bus=p1rdt2985lv.1.0 Kv=0.12 kva=10.0 EmergHKVA=15.0 %r=0.832101 wdg=3 conn=wye bus=p1rdt2985lv.0.2 Kv=0.12 kva=10.0 EmergHKVA=15.0 %r=0.832101 XHL=1.08 XLT=1.08 XHT=0.72

New Transformer.tr(r:p1rdt2986-p1rdt2986lv) phases=1 windings=3 %loadloss=1.248151 %Noloadloss=0.68 normhkva=11.0 wdg=1 conn=wye bus=p1rdt2986.1 Kv=7.2 kva=10.0 EmergHKVA=15.0 %r=0.41605 wdg=2 conn=wye bus=p1rdt2986lv.1.0 Kv=0.12 kva=10.0 EmergHKVA=15.0 %r=0.832101 wdg=3 conn=wye bus=p1rdt2986lv.0.2 Kv=0.12 kva=10.0 EmergHKVA=15.0 %r=0.832101 XHL=1.08 XLT=1.08 XHT=0.72

New Transformer.tr(r:p1rdt2993-p1rdt2993lv) phases=1 windings=3 %loadloss=1.248151 %Noloadloss=0.68 normhkva=11.0 wdg=1 conn=wye bus=p1rdt2993.1 Kv=7.2 kva=10.0 EmergHKVA=15.0 %r=0.41605 wdg=2 conn=wye bus=p1rdt2993lv.1.0 Kv=0.12 kva=10.0 EmergHKVA=15.0 %r=0.832101 wdg=3 conn=wye bus=p1rdt2993lv.0.2 Kv=0.12 kva=10.0 EmergHKVA=15.0 %r=0.832101 XHL=1.08 XLT=1.08 XHT=0.72

New Transformer.tr(r:p1rdt2994-p1rdt2994lv) phases=1 windings=3 %loadloss=0.798816 %Noloadloss=0.472 normhkva=27.5 wdg=1 conn=wye bus=p1rdt2994.3 Kv=7.2 kva=25.0 EmergHKVA=37.5 %r=0.266272 wdg=2 conn=wye bus=p1rdt2994lv.1.0 Kv=0.12 kva=25.0 EmergHKVA=37.5 %r=0.532544 wdg=3 conn=wye bus=p1rdt2994lv.0.2 Kv=0.12 kva=25.0 EmergHKVA=37.5 %r=0.532544 XHL=2.4 XLT=2.4 XHT=1.6

New Transformer.tr(r:p1rdt2998-p1rdt2998lv) phases=1 windings=3 %loadloss=1.248151 %Noloadloss=0.68 normhkva=11.0 wdg=1 conn=wye bus=p1rdt2998.2 Kv=7.2 kva=10.0 EmergHKVA=15.0 %r=0.41605 wdg=2 conn=wye bus=p1rdt2998lv.1.0 Kv=0.12 kva=10.0 EmergHKVA=15.0 %r=0.832101 wdg=3 conn=wye bus=p1rdt2998lv.0.2 Kv=0.12 kva=10.0 EmergHKVA=15.0 %r=0.832101 XHL=1.08 XLT=1.08 XHT=0.72

New Transformer.tr(r:p1rdt2999-p1rdt2999lv) phases=1 windings=3 %loadloss=1.248151 %Noloadloss=0.68 normhkva=11.0 wdg=1 conn=wye bus=p1rdt2999.1 Kv=7.2 kva=10.0 EmergHKVA=15.0 %r=0.41605 wdg=2 conn=wye bus=p1rdt2999lv.1.0 Kv=0.12 kva=10.0 EmergHKVA=15.0 %r=0.832101 wdg=3 conn=wye bus=p1rdt2999lv.0.2 Kv=0.12 kva=10.0 EmergHKVA=15.0 %r=0.832101 XHL=1.08 XLT=1.08 XHT=0.72

New Transformer.tr(r:p1rdt3000-p1rdt3000lv) phases=1 windings=3 %loadloss=1.248151 %Noloadloss=0.68 normhkva=11.0 wdg=1 conn=wye bus=p1rdt3000.1 Kv=7.2 kva=10.0 EmergHKVA=15.0 %r=0.41605 wdg=2 conn=wye bus=p1rdt3000lv.1.0 Kv=0.12 kva=10.0 EmergHKVA=15.0 %r=0.832101 wdg=3 conn=wye bus=p1rdt3000lv.0.2 Kv=0.12 kva=10.0 EmergHKVA=15.0 %r=0.832101 XHL=1.08 XLT=1.08 XHT=0.72

New Transformer.tr(r:p1rdt3001-p1rdt3001lv) phases=1 windings=3 %loadloss=1.248151 %Noloadloss=0.68 normhkva=11.0 wdg=1 conn=wye bus=p1rdt3001.1 Kv=7.2 kva=10.0 EmergHKVA=15.0 %r=0.41605 wdg=2 conn=wye bus=p1rdt3001lv.1.0 Kv=0.12 kva=10.0 EmergHKVA=15.0 %r=0.832101 wdg=3 conn=wye bus=p1rdt3001lv.0.2 Kv=0.12 kva=10.0 EmergHKVA=15.0 %r=0.832101 XHL=1.08 XLT=1.08 XHT=0.72

New Transformer.tr(r:p1rdt3002-p1rdt3002lv) phases=1 windings=3 %loadloss=1.248151 %Noloadloss=0.68 normhkva=11.0 wdg=1 conn=wye bus=p1rdt3002.3 Kv=7.2 kva=10.0 EmergHKVA=15.0 %r=0.41605 wdg=2 conn=wye bus=p1rdt3002lv.1.0 Kv=0.12 kva=10.0 EmergHKVA=15.0 %r=0.832101 wdg=3 conn=wye bus=p1rdt3002lv.0.2 Kv=0.12 kva=10.0 EmergHKVA=15.0 %r=0.832101 XHL=1.08 XLT=1.08 XHT=0.72

New Transformer.tr(r:p1rdt3003-p1rdt3003lv) phases=1 windings=3 %loadloss=1.248151 %Noloadloss=0.68 normhkva=11.0 wdg=1 conn=wye bus=p1rdt3003.1 Kv=7.2 kva=10.0 EmergHKVA=15.0 %r=0.41605 wdg=2 conn=wye bus=p1rdt3003lv.1.0 Kv=0.12 kva=10.0 EmergHKVA=15.0 %r=0.832101 wdg=3 conn=wye bus=p1rdt3003lv.0.2 Kv=0.12 kva=10.0 EmergHKVA=15.0 %r=0.832101 XHL=1.08 XLT=1.08 XHT=0.72

New Transformer.tr(r:p1rdt3004-p1rdt3004lv) phases=1 windings=3 %loadloss=1.248151 %Noloadloss=0.68 normhkva=11.0 wdg=1 conn=wye bus=p1rdt3004.2 Kv=7.2 kva=10.0 EmergHKVA=15.0 %r=0.41605 wdg=2 conn=wye bus=p1rdt3004lv.1.0 Kv=0.12 kva=10.0 EmergHKVA=15.0 %r=0.832101 wdg=3 conn=wye bus=p1rdt3004lv.0.2 Kv=0.12 kva=10.0 EmergHKVA=15.0 %r=0.832101 XHL=1.08 XLT=1.08 XHT=0.72

New Transformer.tr(r:p1rdt3005-p1rdt3005lv) phases=1 windings=3 %loadloss=1.248151 %Noloadloss=0.68 normhkva=11.0 wdg=1 conn=wye bus=p1rdt3005.2 Kv=7.2 kva=10.0 EmergHKVA=15.0 %r=0.41605 wdg=2 conn=wye bus=p1rdt3005lv.1.0 Kv=0.12 kva=10.0 EmergHKVA=15.0 %r=0.832101 wdg=3 conn=wye bus=p1rdt3005lv.0.2 Kv=0.12 kva=10.0 EmergHKVA=15.0 %r=0.832101 XHL=1.08 XLT=1.08 XHT=0.72

New Transformer.tr(r:p1rdt3006-p1rdt3006lv) phases=1 windings=3 %loadloss=1.248151 %Noloadloss=0.68 normhkva=11.0 wdg=1 conn=wye bus=p1rdt3006.1 Kv=7.2 kva=10.0 EmergHKVA=15.0 %r=0.41605 wdg=2 conn=wye bus=p1rdt3006lv.1.0 Kv=0.12 kva=10.0 EmergHKVA=15.0 %r=0.832101 wdg=3 conn=wye bus=p1rdt3006lv.0.2 Kv=0.12 kva=10.0 EmergHKVA=15.0 %r=0.832101 XHL=1.08 XLT=1.08 XHT=0.72

New Transformer.tr(r:p1rdt3007-p1rdt3007lv) phases=1 windings=3 %loadloss=1.248151 %Noloadloss=0.68 normhkva=11.0 wdg=1 conn=wye bus=p1rdt3007.1 Kv=7.2 kva=10.0 EmergHKVA=15.0 %r=0.41605 wdg=2 conn=wye bus=p1rdt3007lv.1.0 Kv=0.12 kva=10.0 EmergHKVA=15.0 %r=0.832101 wdg=3 conn=wye bus=p1rdt3007lv.0.2 Kv=0.12 kva=10.0 EmergHKVA=15.0 %r=0.832101 XHL=1.08 XLT=1.08 XHT=0.72

New Transformer.tr(r:p1rdt3011-p1rdt3011lv) phases=1 windings=3 %loadloss=0.798816 %Noloadloss=0.472 normhkva=27.5 wdg=1 conn=wye bus=p1rdt3011.3 Kv=7.2 kva=25.0 EmergHKVA=37.5 %r=0.266272 wdg=2 conn=wye bus=p1rdt3011lv.1.0 Kv=0.12 kva=25.0 EmergHKVA=37.5 %r=0.532544 wdg=3 conn=wye bus=p1rdt3011lv.0.2 Kv=0.12 kva=25.0 EmergHKVA=37.5 %r=0.532544 XHL=2.4 XLT=2.4 XHT=1.6

New Transformer.tr(r:p1rdt3012-p1rdt3012lv) phases=1 windings=3 %loadloss=1.248151 %Noloadloss=0.68 normhkva=11.0 wdg=1 conn=wye bus=p1rdt3012.3 Kv=7.2 kva=10.0 EmergHKVA=15.0 %r=0.41605 wdg=2 conn=wye bus=p1rdt3012lv.1.0 Kv=0.12 kva=10.0 EmergHKVA=15.0 %r=0.832101 wdg=3 conn=wye bus=p1rdt3012lv.0.2 Kv=0.12 kva=10.0 EmergHKVA=15.0 %r=0.832101 XHL=1.08 XLT=1.08 XHT=0.72

New Transformer.tr(r:p1rdt3013-p1rdt3013lv) phases=1 windings=3 %loadloss=1.248151 %Noloadloss=0.68 normhkva=11.0 wdg=1 conn=wye bus=p1rdt3013.3 Kv=7.2 kva=10.0 EmergHKVA=15.0 %r=0.41605 wdg=2 conn=wye bus=p1rdt3013lv.1.0 Kv=0.12 kva=10.0 EmergHKVA=15.0 %r=0.832101 wdg=3 conn=wye bus=p1rdt3013lv.0.2 Kv=0.12 kva=10.0 EmergHKVA=15.0 %r=0.832101 XHL=1.08 XLT=1.08 XHT=0.72

New Transformer.tr(r:p1rdt3014-p1rdt3014lv) phases=1 windings=3 %loadloss=0.798816 %Noloadloss=0.472 normhkva=27.5 wdg=1 conn=wye bus=p1rdt3014.3 Kv=7.2 kva=25.0 EmergHKVA=37.5 %r=0.266272 wdg=2 conn=wye bus=p1rdt3014lv.1.0 Kv=0.12 kva=25.0 EmergHKVA=37.5 %r=0.532544 wdg=3 conn=wye bus=p1rdt3014lv.0.2 Kv=0.12 kva=25.0 EmergHKVA=37.5 %r=0.532544 XHL=2.4 XLT=2.4 XHT=1.6

New Transformer.tr(r:p1rdt3015-p1rdt3015lv) phases=1 windings=3 %loadloss=0.798816 %Noloadloss=0.472 normhkva=27.5 wdg=1 conn=wye bus=p1rdt3015.3 Kv=7.2 kva=25.0 EmergHKVA=37.5 %r=0.266272 wdg=2 conn=wye bus=p1rdt3015lv.1.0 Kv=0.12 kva=25.0 EmergHKVA=37.5 %r=0.532544 wdg=3 conn=wye bus=p1rdt3015lv.0.2 Kv=0.12 kva=25.0 EmergHKVA=37.5 %r=0.532544 XHL=2.4 XLT=2.4 XHT=1.6

New Transformer.tr(r:p1rdt3016-p1rdt3016lv) phases=1 windings=3 %loadloss=0.798816 %Noloadloss=0.472 normhkva=27.5 wdg=1 conn=wye bus=p1rdt3016.3 Kv=7.2 kva=25.0 EmergHKVA=37.5 %r=0.266272 wdg=2 conn=wye bus=p1rdt3016lv.1.0 Kv=0.12 kva=25.0 EmergHKVA=37.5 %r=0.532544 wdg=3 conn=wye bus=p1rdt3016lv.0.2 Kv=0.12 kva=25.0 EmergHKVA=37.5 %r=0.532544 XHL=2.4 XLT=2.4 XHT=1.6

New Transformer.tr(r:p1rdt3017-p1rdt3017lv) phases=1 windings=3 %loadloss=1.248151 %Noloadloss=0.68 normhkva=11.0 wdg=1 conn=wye bus=p1rdt3017.3 Kv=7.2 kva=10.0 EmergHKVA=15.0 %r=0.41605 wdg=2 conn=wye bus=p1rdt3017lv.1.0 Kv=0.12 kva=10.0 EmergHKVA=15.0 %r=0.832101 wdg=3 conn=wye bus=p1rdt3017lv.0.2 Kv=0.12 kva=10.0 EmergHKVA=15.0 %r=0.832101 XHL=1.08 XLT=1.08 XHT=0.72

New Transformer.tr(r:p1rdt3018-p1rdt3018lv) phases=1 windings=3 %loadloss=1.248151 %Noloadloss=0.68 normhkva=11.0 wdg=1 conn=wye bus=p1rdt3018.1 Kv=7.2 kva=10.0 EmergHKVA=15.0 %r=0.41605 wdg=2 conn=wye bus=p1rdt3018lv.1.0 Kv=0.12 kva=10.0 EmergHKVA=15.0 %r=0.832101 wdg=3 conn=wye bus=p1rdt3018lv.0.2 Kv=0.12 kva=10.0 EmergHKVA=15.0 %r=0.832101 XHL=1.08 XLT=1.08 XHT=0.72

New Transformer.tr(r:p1rdt3019-p1rdt3019lv) phases=1 windings=3 %loadloss=1.248151 %Noloadloss=0.68 normhkva=11.0 wdg=1 conn=wye bus=p1rdt3019.1 Kv=7.2 kva=10.0 EmergHKVA=15.0 %r=0.41605 wdg=2 conn=wye bus=p1rdt3019lv.1.0 Kv=0.12 kva=10.0 EmergHKVA=15.0 %r=0.832101 wdg=3 conn=wye bus=p1rdt3019lv.0.2 Kv=0.12 kva=10.0 EmergHKVA=15.0 %r=0.832101 XHL=1.08 XLT=1.08 XHT=0.72

New Transformer.tr(r:p1rdt3020-p1rdt3020lv) phases=1 windings=3 %loadloss=1.248151 %Noloadloss=0.68 normhkva=11.0 wdg=1 conn=wye bus=p1rdt3020.2 Kv=7.2 kva=10.0 EmergHKVA=15.0 %r=0.41605 wdg=2 conn=wye bus=p1rdt3020lv.1.0 Kv=0.12 kva=10.0 EmergHKVA=15.0 %r=0.832101 wdg=3 conn=wye bus=p1rdt3020lv.0.2 Kv=0.12 kva=10.0 EmergHKVA=15.0 %r=0.832101 XHL=1.08 XLT=1.08 XHT=0.72

New Transformer.tr(r:p1rdt3021-p1rdt3021lv) phases=1 windings=3 %loadloss=1.248151 %Noloadloss=0.68 normhkva=11.0 wdg=1 conn=wye bus=p1rdt3021.3 Kv=7.2 kva=10.0 EmergHKVA=15.0 %r=0.41605 wdg=2 conn=wye bus=p1rdt3021lv.1.0 Kv=0.12 kva=10.0 EmergHKVA=15.0 %r=0.832101 wdg=3 conn=wye bus=p1rdt3021lv.0.2 Kv=0.12 kva=10.0 EmergHKVA=15.0 %r=0.832101 XHL=1.08 XLT=1.08 XHT=0.72

New Transformer.tr(r:p1rdt3210-p1rdt3210lv) phases=1 windings=3 %loadloss=1.248151 %Noloadloss=0.68 normhkva=11.0 wdg=1 conn=wye bus=p1rdt3210.3 Kv=7.2 kva=10.0 EmergHKVA=15.0 %r=0.41605 wdg=2 conn=wye bus=p1rdt3210lv.1.0 Kv=0.12 kva=10.0 EmergHKVA=15.0 %r=0.832101 wdg=3 conn=wye bus=p1rdt3210lv.0.2 Kv=0.12 kva=10.0 EmergHKVA=15.0 %r=0.832101 XHL=1.08 XLT=1.08 XHT=0.72

New Transformer.tr(r:p1rdt3211-p1rdt3211lv) phases=1 windings=3 %loadloss=1.248151 %Noloadloss=0.68 normhkva=11.0 wdg=1 conn=wye bus=p1rdt3211.3 Kv=7.2 kva=10.0 EmergHKVA=15.0 %r=0.41605 wdg=2 conn=wye bus=p1rdt3211lv.1.0 Kv=0.12 kva=10.0 EmergHKVA=15.0 %r=0.832101 wdg=3 conn=wye bus=p1rdt3211lv.0.2 Kv=0.12 kva=10.0 EmergHKVA=15.0 %r=0.832101 XHL=1.08 XLT=1.08 XHT=0.72

New Transformer.tr(r:p1rdt3212-p1rdt3212lv) phases=1 windings=3 %loadloss=0.798816 %Noloadloss=0.472 normhkva=27.5 wdg=1 conn=wye bus=p1rdt3212.3 Kv=7.2 kva=25.0 EmergHKVA=37.5 %r=0.266272 wdg=2 conn=wye bus=p1rdt3212lv.1.0 Kv=0.12 kva=25.0 EmergHKVA=37.5 %r=0.532544 wdg=3 conn=wye bus=p1rdt3212lv.0.2 Kv=0.12 kva=25.0 EmergHKVA=37.5 %r=0.532544 XHL=2.4 XLT=2.4 XHT=1.6

New Transformer.tr(r:p1rdt3221-p1rdt3221lv) phases=1 windings=3 %loadloss=0.798816 %Noloadloss=0.37 normhkva=55.0 wdg=1 conn=wye bus=p1rdt3221.1 Kv=7.2 kva=50.0 EmergHKVA=75.0 %r=0.266272 wdg=2 conn=wye bus=p1rdt3221lv.1.0 Kv=0.12 kva=50.0 EmergHKVA=75.0 %r=0.532544 wdg=3 conn=wye bus=p1rdt3221lv.0.2 Kv=0.12 kva=50.0 EmergHKVA=75.0 %r=0.532544 XHL=2.4 XLT=2.4 XHT=1.6

New Transformer.tr(r:p1rdt3222-p1rdt3222lv) phases=1 windings=3 %loadloss=0.798816 %Noloadloss=0.37 normhkva=55.0 wdg=1 conn=wye bus=p1rdt3222.3 Kv=7.2 kva=50.0 EmergHKVA=75.0 %r=0.266272 wdg=2 conn=wye bus=p1rdt3222lv.1.0 Kv=0.12 kva=50.0 EmergHKVA=75.0 %r=0.532544 wdg=3 conn=wye bus=p1rdt3222lv.0.2 Kv=0.12 kva=50.0 EmergHKVA=75.0 %r=0.532544 XHL=2.4 XLT=2.4 XHT=1.6

New Transformer.tr(r:p1rdt3223-p1rdt3223lv) phases=1 windings=3 %loadloss=0.798816 %Noloadloss=0.472 normhkva=27.5 wdg=1 conn=wye bus=p1rdt3223.3 Kv=7.2 kva=25.0 EmergHKVA=37.5 %r=0.266272 wdg=2 conn=wye bus=p1rdt3223lv.1.0 Kv=0.12 kva=25.0 EmergHKVA=37.5 %r=0.532544 wdg=3 conn=wye bus=p1rdt3223lv.0.2 Kv=0.12 kva=25.0 EmergHKVA=37.5 %r=0.532544 XHL=2.4 XLT=2.4 XHT=1.6

New Transformer.tr(r:p1rdt3224-p1rdt3224lv) phases=3 windings=2 %loadloss=1.82396 %Noloadloss=0.325 normhkva=330.0 wdg=1 conn=wye Kv=12.47 kva=300.0 EmergHKVA=450.0 %R=0.91198 bus=p1rdt3224 wdg=2 conn=wye Kv=0.48 kva=300.0 EmergHKVA=450.0 %R=0.91198 bus=p1rdt3224lv XHL=3.7599999999999993

New Transformer.tr(r:p1rdt3225-p1rdt3225lv) phases=1 windings=3 %loadloss=1.248151 %Noloadloss=0.68 normhkva=11.0 wdg=1 conn=wye bus=p1rdt3225.1 Kv=7.2 kva=10.0 EmergHKVA=15.0 %r=0.41605 wdg=2 conn=wye bus=p1rdt3225lv.1.0 Kv=0.12 kva=10.0 EmergHKVA=15.0 %r=0.832101 wdg=3 conn=wye bus=p1rdt3225lv.0.2 Kv=0.12 kva=10.0 EmergHKVA=15.0 %r=0.832101 XHL=1.08 XLT=1.08 XHT=0.72

New Transformer.tr(r:p1rdt3226-p1rdt3226lv) phases=1 windings=3 %loadloss=0.798816 %Noloadloss=0.37 normhkva=55.0 wdg=1 conn=wye bus=p1rdt3226.3 Kv=7.2 kva=50.0 EmergHKVA=75.0 %r=0.266272 wdg=2 conn=wye bus=p1rdt3226lv.1.0 Kv=0.12 kva=50.0 EmergHKVA=75.0 %r=0.532544 wdg=3 conn=wye bus=p1rdt3226lv.0.2 Kv=0.12 kva=50.0 EmergHKVA=75.0 %r=0.532544 XHL=2.4 XLT=2.4 XHT=1.6

New Transformer.tr(r:p1rdt3227-p1rdt3227lv) phases=1 windings=3 %loadloss=0.798816 %Noloadloss=0.37 normhkva=55.0 wdg=1 conn=wye bus=p1rdt3227.2 Kv=7.2 kva=50.0 EmergHKVA=75.0 %r=0.266272 wdg=2 conn=wye bus=p1rdt3227lv.1.0 Kv=0.12 kva=50.0 EmergHKVA=75.0 %r=0.532544 wdg=3 conn=wye bus=p1rdt3227lv.0.2 Kv=0.12 kva=50.0 EmergHKVA=75.0 %r=0.532544 XHL=2.4 XLT=2.4 XHT=1.6

New Transformer.tr(r:p1rdt3235-p1rdt3235lv) phases=1 windings=3 %loadloss=1.248151 %Noloadloss=0.68 normhkva=11.0 wdg=1 conn=wye bus=p1rdt3235.1 Kv=7.2 kva=10.0 EmergHKVA=15.0 %r=0.41605 wdg=2 conn=wye bus=p1rdt3235lv.1.0 Kv=0.12 kva=10.0 EmergHKVA=15.0 %r=0.832101 wdg=3 conn=wye bus=p1rdt3235lv.0.2 Kv=0.12 kva=10.0 EmergHKVA=15.0 %r=0.832101 XHL=1.08 XLT=1.08 XHT=0.72

New Transformer.tr(r:p1rdt3236-p1rdt3236lv) phases=1 windings=3 %loadloss=0.798816 %Noloadloss=0.472 normhkva=27.5 wdg=1 conn=wye bus=p1rdt3236.2 Kv=7.2 kva=25.0 EmergHKVA=37.5 %r=0.266272 wdg=2 conn=wye bus=p1rdt3236lv.1.0 Kv=0.12 kva=25.0 EmergHKVA=37.5 %r=0.532544 wdg=3 conn=wye bus=p1rdt3236lv.0.2 Kv=0.12 kva=25.0 EmergHKVA=37.5 %r=0.532544 XHL=2.4 XLT=2.4 XHT=1.6

New Transformer.tr(r:p1rdt3237-p1rdt3237lv) phases=1 windings=3 %loadloss=1.248151 %Noloadloss=0.68 normhkva=11.0 wdg=1 conn=wye bus=p1rdt3237.3 Kv=7.2 kva=10.0 EmergHKVA=15.0 %r=0.41605 wdg=2 conn=wye bus=p1rdt3237lv.1.0 Kv=0.12 kva=10.0 EmergHKVA=15.0 %r=0.832101 wdg=3 conn=wye bus=p1rdt3237lv.0.2 Kv=0.12 kva=10.0 EmergHKVA=15.0 %r=0.832101 XHL=1.08 XLT=1.08 XHT=0.72

New Transformer.tr(r:p1rdt3238-p1rdt3238lv) phases=1 windings=3 %loadloss=1.248151 %Noloadloss=0.68 normhkva=11.0 wdg=1 conn=wye bus=p1rdt3238.1 Kv=7.2 kva=10.0 EmergHKVA=15.0 %r=0.41605 wdg=2 conn=wye bus=p1rdt3238lv.1.0 Kv=0.12 kva=10.0 EmergHKVA=15.0 %r=0.832101 wdg=3 conn=wye bus=p1rdt3238lv.0.2 Kv=0.12 kva=10.0 EmergHKVA=15.0 %r=0.832101 XHL=1.08 XLT=1.08 XHT=0.72

New Transformer.tr(r:p1rdt3239-p1rdt3239lv) phases=1 windings=3 %loadloss=1.248151 %Noloadloss=0.68 normhkva=11.0 wdg=1 conn=wye bus=p1rdt3239.2 Kv=7.2 kva=10.0 EmergHKVA=15.0 %r=0.41605 wdg=2 conn=wye bus=p1rdt3239lv.1.0 Kv=0.12 kva=10.0 EmergHKVA=15.0 %r=0.832101 wdg=3 conn=wye bus=p1rdt3239lv.0.2 Kv=0.12 kva=10.0 EmergHKVA=15.0 %r=0.832101 XHL=1.08 XLT=1.08 XHT=0.72

New Transformer.tr(r:p1rdt3240-p1rdt3240lv) phases=1 windings=3 %loadloss=1.248151 %Noloadloss=0.68 normhkva=11.0 wdg=1 conn=wye bus=p1rdt3240.2 Kv=7.2 kva=10.0 EmergHKVA=15.0 %r=0.41605 wdg=2 conn=wye bus=p1rdt3240lv.1.0 Kv=0.12 kva=10.0 EmergHKVA=15.0 %r=0.832101 wdg=3 conn=wye bus=p1rdt3240lv.0.2 Kv=0.12 kva=10.0 EmergHKVA=15.0 %r=0.832101 XHL=1.08 XLT=1.08 XHT=0.72

New Transformer.tr(r:p1rdt3241-p1rdt3241lv) phases=1 windings=3 %loadloss=1.248151 %Noloadloss=0.68 normhkva=11.0 wdg=1 conn=wye bus=p1rdt3241.3 Kv=7.2 kva=10.0 EmergHKVA=15.0 %r=0.41605 wdg=2 conn=wye bus=p1rdt3241lv.1.0 Kv=0.12 kva=10.0 EmergHKVA=15.0 %r=0.832101 wdg=3 conn=wye bus=p1rdt3241lv.0.2 Kv=0.12 kva=10.0 EmergHKVA=15.0 %r=0.832101 XHL=1.08 XLT=1.08 XHT=0.72

New Transformer.tr(r:p1rdt3242-p1rdt3242lv) phases=1 windings=3 %loadloss=0.798816 %Noloadloss=0.472 normhkva=27.5 wdg=1 conn=wye bus=p1rdt3242.3 Kv=7.2 kva=25.0 EmergHKVA=37.5 %r=0.266272 wdg=2 conn=wye bus=p1rdt3242lv.1.0 Kv=0.12 kva=25.0 EmergHKVA=37.5 %r=0.532544 wdg=3 conn=wye bus=p1rdt3242lv.0.2 Kv=0.12 kva=25.0 EmergHKVA=37.5 %r=0.532544 XHL=2.4 XLT=2.4 XHT=1.6

New Transformer.tr(r:p1rdt3243-p1rdt3243lv) phases=1 windings=3 %loadloss=0.798816 %Noloadloss=0.472 normhkva=27.5 wdg=1 conn=wye bus=p1rdt3243.3 Kv=7.2 kva=25.0 EmergHKVA=37.5 %r=0.266272 wdg=2 conn=wye bus=p1rdt3243lv.1.0 Kv=0.12 kva=25.0 EmergHKVA=37.5 %r=0.532544 wdg=3 conn=wye bus=p1rdt3243lv.0.2 Kv=0.12 kva=25.0 EmergHKVA=37.5 %r=0.532544 XHL=2.4 XLT=2.4 XHT=1.6

New Transformer.tr(r:p1rdt3244-p1rdt3244lv) phases=1 windings=3 %loadloss=1.248151 %Noloadloss=0.68 normhkva=11.0 wdg=1 conn=wye bus=p1rdt3244.3 Kv=7.2 kva=10.0 EmergHKVA=15.0 %r=0.41605 wdg=2 conn=wye bus=p1rdt3244lv.1.0 Kv=0.12 kva=10.0 EmergHKVA=15.0 %r=0.832101 wdg=3 conn=wye bus=p1rdt3244lv.0.2 Kv=0.12 kva=10.0 EmergHKVA=15.0 %r=0.832101 XHL=1.08 XLT=1.08 XHT=0.72

New Transformer.tr(r:p1rdt3245-p1rdt3245lv) phases=1 windings=3 %loadloss=1.248151 %Noloadloss=0.68 normhkva=11.0 wdg=1 conn=wye bus=p1rdt3245.2 Kv=7.2 kva=10.0 EmergHKVA=15.0 %r=0.41605 wdg=2 conn=wye bus=p1rdt3245lv.1.0 Kv=0.12 kva=10.0 EmergHKVA=15.0 %r=0.832101 wdg=3 conn=wye bus=p1rdt3245lv.0.2 Kv=0.12 kva=10.0 EmergHKVA=15.0 %r=0.832101 XHL=1.08 XLT=1.08 XHT=0.72

New Transformer.tr(r:p1rdt3246-p1rdt3246lv) phases=1 windings=3 %loadloss=1.248151 %Noloadloss=0.68 normhkva=11.0 wdg=1 conn=wye bus=p1rdt3246.3 Kv=7.2 kva=10.0 EmergHKVA=15.0 %r=0.41605 wdg=2 conn=wye bus=p1rdt3246lv.1.0 Kv=0.12 kva=10.0 EmergHKVA=15.0 %r=0.832101 wdg=3 conn=wye bus=p1rdt3246lv.0.2 Kv=0.12 kva=10.0 EmergHKVA=15.0 %r=0.832101 XHL=1.08 XLT=1.08 XHT=0.72

New Transformer.tr(r:p1rdt3247-p1rdt3247lv) phases=1 windings=3 %loadloss=1.248151 %Noloadloss=0.68 normhkva=11.0 wdg=1 conn=wye bus=p1rdt3247.3 Kv=7.2 kva=10.0 EmergHKVA=15.0 %r=0.41605 wdg=2 conn=wye bus=p1rdt3247lv.1.0 Kv=0.12 kva=10.0 EmergHKVA=15.0 %r=0.832101 wdg=3 conn=wye bus=p1rdt3247lv.0.2 Kv=0.12 kva=10.0 EmergHKVA=15.0 %r=0.832101 XHL=1.08 XLT=1.08 XHT=0.72

New Transformer.tr(r:p1rdt3248-p1rdt3248lv) phases=1 windings=3 %loadloss=0.798816 %Noloadloss=0.472 normhkva=27.5 wdg=1 conn=wye bus=p1rdt3248.3 Kv=7.2 kva=25.0 EmergHKVA=37.5 %r=0.266272 wdg=2 conn=wye bus=p1rdt3248lv.1.0 Kv=0.12 kva=25.0 EmergHKVA=37.5 %r=0.532544 wdg=3 conn=wye bus=p1rdt3248lv.0.2 Kv=0.12 kva=25.0 EmergHKVA=37.5 %r=0.532544 XHL=2.4 XLT=2.4 XHT=1.6

New Transformer.tr(r:p1rdt3249-p1rdt3249lv) phases=1 windings=3 %loadloss=0.798816 %Noloadloss=0.472 normhkva=27.5 wdg=1 conn=wye bus=p1rdt3249.2 Kv=7.2 kva=25.0 EmergHKVA=37.5 %r=0.266272 wdg=2 conn=wye bus=p1rdt3249lv.1.0 Kv=0.12 kva=25.0 EmergHKVA=37.5 %r=0.532544 wdg=3 conn=wye bus=p1rdt3249lv.0.2 Kv=0.12 kva=25.0 EmergHKVA=37.5 %r=0.532544 XHL=2.4 XLT=2.4 XHT=1.6

New Transformer.tr(r:p1rdt3250-p1rdt3250lv) phases=1 windings=3 %loadloss=1.248151 %Noloadloss=0.68 normhkva=11.0 wdg=1 conn=wye bus=p1rdt3250.1 Kv=7.2 kva=10.0 EmergHKVA=15.0 %r=0.41605 wdg=2 conn=wye bus=p1rdt3250lv.1.0 Kv=0.12 kva=10.0 EmergHKVA=15.0 %r=0.832101 wdg=3 conn=wye bus=p1rdt3250lv.0.2 Kv=0.12 kva=10.0 EmergHKVA=15.0 %r=0.832101 XHL=1.08 XLT=1.08 XHT=0.72

New Transformer.tr(r:p1rdt3251-p1rdt3251lv) phases=1 windings=3 %loadloss=1.248151 %Noloadloss=0.68 normhkva=11.0 wdg=1 conn=wye bus=p1rdt3251.1 Kv=7.2 kva=10.0 EmergHKVA=15.0 %r=0.41605 wdg=2 conn=wye bus=p1rdt3251lv.1.0 Kv=0.12 kva=10.0 EmergHKVA=15.0 %r=0.832101 wdg=3 conn=wye bus=p1rdt3251lv.0.2 Kv=0.12 kva=10.0 EmergHKVA=15.0 %r=0.832101 XHL=1.08 XLT=1.08 XHT=0.72

New Transformer.tr(r:p1rdt3252-p1rdt3252lv) phases=1 windings=3 %loadloss=1.248151 %Noloadloss=0.68 normhkva=11.0 wdg=1 conn=wye bus=p1rdt3252.3 Kv=7.2 kva=10.0 EmergHKVA=15.0 %r=0.41605 wdg=2 conn=wye bus=p1rdt3252lv.1.0 Kv=0.12 kva=10.0 EmergHKVA=15.0 %r=0.832101 wdg=3 conn=wye bus=p1rdt3252lv.0.2 Kv=0.12 kva=10.0 EmergHKVA=15.0 %r=0.832101 XHL=1.08 XLT=1.08 XHT=0.72

New Transformer.tr(r:p1rdt3253-p1rdt3253lv) phases=3 windings=2 %loadloss=1.82396 %Noloadloss=0.325 normhkva=330.0 wdg=1 conn=wye Kv=12.47 kva=300.0 EmergHKVA=450.0 %R=0.91198 bus=p1rdt3253 wdg=2 conn=wye Kv=0.48 kva=300.0 EmergHKVA=450.0 %R=0.91198 bus=p1rdt3253lv XHL=3.7599999999999993

New Transformer.tr(r:p1rdt3254-p1rdt3254lv) phases=1 windings=3 %loadloss=0.798816 %Noloadloss=0.37 normhkva=55.0 wdg=1 conn=wye bus=p1rdt3254.2 Kv=7.2 kva=50.0 EmergHKVA=75.0 %r=0.266272 wdg=2 conn=wye bus=p1rdt3254lv.1.0 Kv=0.12 kva=50.0 EmergHKVA=75.0 %r=0.532544 wdg=3 conn=wye bus=p1rdt3254lv.0.2 Kv=0.12 kva=50.0 EmergHKVA=75.0 %r=0.532544 XHL=2.4 XLT=2.4 XHT=1.6

New Transformer.tr(r:p1rdt3255-p1rdt3255lv) phases=1 windings=3 %loadloss=0.798816 %Noloadloss=0.472 normhkva=27.5 wdg=1 conn=wye bus=p1rdt3255.1 Kv=7.2 kva=25.0 EmergHKVA=37.5 %r=0.266272 wdg=2 conn=wye bus=p1rdt3255lv.1.0 Kv=0.12 kva=25.0 EmergHKVA=37.5 %r=0.532544 wdg=3 conn=wye bus=p1rdt3255lv.0.2 Kv=0.12 kva=25.0 EmergHKVA=37.5 %r=0.532544 XHL=2.4 XLT=2.4 XHT=1.6

New Transformer.tr(r:p1rdt3256-p1rdt3256lv) phases=1 windings=3 %loadloss=0.798816 %Noloadloss=0.37 normhkva=55.0 wdg=1 conn=wye bus=p1rdt3256.1 Kv=7.2 kva=50.0 EmergHKVA=75.0 %r=0.266272 wdg=2 conn=wye bus=p1rdt3256lv.1.0 Kv=0.12 kva=50.0 EmergHKVA=75.0 %r=0.532544 wdg=3 conn=wye bus=p1rdt3256lv.0.2 Kv=0.12 kva=50.0 EmergHKVA=75.0 %r=0.532544 XHL=2.4 XLT=2.4 XHT=1.6

New Transformer.tr(r:p1rdt3257-p1rdt3257lv) phases=1 windings=3 %loadloss=1.248151 %Noloadloss=0.68 normhkva=11.0 wdg=1 conn=wye bus=p1rdt3257.2 Kv=7.2 kva=10.0 EmergHKVA=15.0 %r=0.41605 wdg=2 conn=wye bus=p1rdt3257lv.1.0 Kv=0.12 kva=10.0 EmergHKVA=15.0 %r=0.832101 wdg=3 conn=wye bus=p1rdt3257lv.0.2 Kv=0.12 kva=10.0 EmergHKVA=15.0 %r=0.832101 XHL=1.08 XLT=1.08 XHT=0.72

New Transformer.tr(r:p1rdt3271-p1rdt3271lv) phases=1 windings=3 %loadloss=0.798816 %Noloadloss=0.37 normhkva=55.0 wdg=1 conn=wye bus=p1rdt3271.3 Kv=7.2 kva=50.0 EmergHKVA=75.0 %r=0.266272 wdg=2 conn=wye bus=p1rdt3271lv.1.0 Kv=0.12 kva=50.0 EmergHKVA=75.0 %r=0.532544 wdg=3 conn=wye bus=p1rdt3271lv.0.2 Kv=0.12 kva=50.0 EmergHKVA=75.0 %r=0.532544 XHL=2.4 XLT=2.4 XHT=1.6

New Transformer.tr(r:p1rdt3272-p1rdt3272lv) phases=1 windings=3 %loadloss=1.248151 %Noloadloss=0.68 normhkva=11.0 wdg=1 conn=wye bus=p1rdt3272.3 Kv=7.2 kva=10.0 EmergHKVA=15.0 %r=0.41605 wdg=2 conn=wye bus=p1rdt3272lv.1.0 Kv=0.12 kva=10.0 EmergHKVA=15.0 %r=0.832101 wdg=3 conn=wye bus=p1rdt3272lv.0.2 Kv=0.12 kva=10.0 EmergHKVA=15.0 %r=0.832101 XHL=1.08 XLT=1.08 XHT=0.72

New Transformer.tr(r:p1rdt3273-p1rdt3273lv) phases=1 windings=3 %loadloss=1.248151 %Noloadloss=0.68 normhkva=11.0 wdg=1 conn=wye bus=p1rdt3273.2 Kv=7.2 kva=10.0 EmergHKVA=15.0 %r=0.41605 wdg=2 conn=wye bus=p1rdt3273lv.1.0 Kv=0.12 kva=10.0 EmergHKVA=15.0 %r=0.832101 wdg=3 conn=wye bus=p1rdt3273lv.0.2 Kv=0.12 kva=10.0 EmergHKVA=15.0 %r=0.832101 XHL=1.08 XLT=1.08 XHT=0.72

New Transformer.tr(r:p1rdt3274-p1rdt3274lv) phases=1 windings=3 %loadloss=0.798816 %Noloadloss=0.472 normhkva=27.5 wdg=1 conn=wye bus=p1rdt3274.2 Kv=7.2 kva=25.0 EmergHKVA=37.5 %r=0.266272 wdg=2 conn=wye bus=p1rdt3274lv.1.0 Kv=0.12 kva=25.0 EmergHKVA=37.5 %r=0.532544 wdg=3 conn=wye bus=p1rdt3274lv.0.2 Kv=0.12 kva=25.0 EmergHKVA=37.5 %r=0.532544 XHL=2.4 XLT=2.4 XHT=1.6

New Transformer.tr(r:p1rdt3275-p1rdt3275lv) phases=1 windings=3 %loadloss=1.248151 %Noloadloss=0.68 normhkva=11.0 wdg=1 conn=wye bus=p1rdt3275.1 Kv=7.2 kva=10.0 EmergHKVA=15.0 %r=0.41605 wdg=2 conn=wye bus=p1rdt3275lv.1.0 Kv=0.12 kva=10.0 EmergHKVA=15.0 %r=0.832101 wdg=3 conn=wye bus=p1rdt3275lv.0.2 Kv=0.12 kva=10.0 EmergHKVA=15.0 %r=0.832101 XHL=1.08 XLT=1.08 XHT=0.72

New Transformer.tr(r:p1rdt3276-p1rdt3276lv) phases=1 windings=3 %loadloss=1.248151 %Noloadloss=0.68 normhkva=11.0 wdg=1 conn=wye bus=p1rdt3276.2 Kv=7.2 kva=10.0 EmergHKVA=15.0 %r=0.41605 wdg=2 conn=wye bus=p1rdt3276lv.1.0 Kv=0.12 kva=10.0 EmergHKVA=15.0 %r=0.832101 wdg=3 conn=wye bus=p1rdt3276lv.0.2 Kv=0.12 kva=10.0 EmergHKVA=15.0 %r=0.832101 XHL=1.08 XLT=1.08 XHT=0.72

New Transformer.tr(r:p1rdt3277-p1rdt3277lv) phases=1 windings=3 %loadloss=1.248151 %Noloadloss=0.68 normhkva=11.0 wdg=1 conn=wye bus=p1rdt3277.2 Kv=7.2 kva=10.0 EmergHKVA=15.0 %r=0.41605 wdg=2 conn=wye bus=p1rdt3277lv.1.0 Kv=0.12 kva=10.0 EmergHKVA=15.0 %r=0.832101 wdg=3 conn=wye bus=p1rdt3277lv.0.2 Kv=0.12 kva=10.0 EmergHKVA=15.0 %r=0.832101 XHL=1.08 XLT=1.08 XHT=0.72

New Transformer.tr(r:p1rdt3278-p1rdt3278lv) phases=1 windings=3 %loadloss=1.248151 %Noloadloss=0.68 normhkva=11.0 wdg=1 conn=wye bus=p1rdt3278.2 Kv=7.2 kva=10.0 EmergHKVA=15.0 %r=0.41605 wdg=2 conn=wye bus=p1rdt3278lv.1.0 Kv=0.12 kva=10.0 EmergHKVA=15.0 %r=0.832101 wdg=3 conn=wye bus=p1rdt3278lv.0.2 Kv=0.12 kva=10.0 EmergHKVA=15.0 %r=0.832101 XHL=1.08 XLT=1.08 XHT=0.72

New Transformer.tr(r:p1rdt3279-p1rdt3279lv) phases=1 windings=3 %loadloss=0.798816 %Noloadloss=0.472 normhkva=27.5 wdg=1 conn=wye bus=p1rdt3279.3 Kv=7.2 kva=25.0 EmergHKVA=37.5 %r=0.266272 wdg=2 conn=wye bus=p1rdt3279lv.1.0 Kv=0.12 kva=25.0 EmergHKVA=37.5 %r=0.532544 wdg=3 conn=wye bus=p1rdt3279lv.0.2 Kv=0.12 kva=25.0 EmergHKVA=37.5 %r=0.532544 XHL=2.4 XLT=2.4 XHT=1.6

New Transformer.tr(r:p1rdt3280-p1rdt3280lv) phases=1 windings=3 %loadloss=0.798816 %Noloadloss=0.472 normhkva=27.5 wdg=1 conn=wye bus=p1rdt3280.3 Kv=7.2 kva=25.0 EmergHKVA=37.5 %r=0.266272 wdg=2 conn=wye bus=p1rdt3280lv.1.0 Kv=0.12 kva=25.0 EmergHKVA=37.5 %r=0.532544 wdg=3 conn=wye bus=p1rdt3280lv.0.2 Kv=0.12 kva=25.0 EmergHKVA=37.5 %r=0.532544 XHL=2.4 XLT=2.4 XHT=1.6

New Transformer.tr(r:p1rdt3281-p1rdt3281lv) phases=1 windings=3 %loadloss=1.248151 %Noloadloss=0.68 normhkva=11.0 wdg=1 conn=wye bus=p1rdt3281.2 Kv=7.2 kva=10.0 EmergHKVA=15.0 %r=0.41605 wdg=2 conn=wye bus=p1rdt3281lv.1.0 Kv=0.12 kva=10.0 EmergHKVA=15.0 %r=0.832101 wdg=3 conn=wye bus=p1rdt3281lv.0.2 Kv=0.12 kva=10.0 EmergHKVA=15.0 %r=0.832101 XHL=1.08 XLT=1.08 XHT=0.72

New Transformer.tr(r:p1rdt3282-p1rdt3282lv) phases=1 windings=3 %loadloss=1.248151 %Noloadloss=0.68 normhkva=11.0 wdg=1 conn=wye bus=p1rdt3282.2 Kv=7.2 kva=10.0 EmergHKVA=15.0 %r=0.41605 wdg=2 conn=wye bus=p1rdt3282lv.1.0 Kv=0.12 kva=10.0 EmergHKVA=15.0 %r=0.832101 wdg=3 conn=wye bus=p1rdt3282lv.0.2 Kv=0.12 kva=10.0 EmergHKVA=15.0 %r=0.832101 XHL=1.08 XLT=1.08 XHT=0.72

New Transformer.tr(r:p1rdt3283-p1rdt3283lv) phases=1 windings=3 %loadloss=1.248151 %Noloadloss=0.68 normhkva=11.0 wdg=1 conn=wye bus=p1rdt3283.2 Kv=7.2 kva=10.0 EmergHKVA=15.0 %r=0.41605 wdg=2 conn=wye bus=p1rdt3283lv.1.0 Kv=0.12 kva=10.0 EmergHKVA=15.0 %r=0.832101 wdg=3 conn=wye bus=p1rdt3283lv.0.2 Kv=0.12 kva=10.0 EmergHKVA=15.0 %r=0.832101 XHL=1.08 XLT=1.08 XHT=0.72

New Transformer.tr(r:p1rdt3284-p1rdt3284lv) phases=1 windings=3 %loadloss=1.248151 %Noloadloss=0.68 normhkva=11.0 wdg=1 conn=wye bus=p1rdt3284.2 Kv=7.2 kva=10.0 EmergHKVA=15.0 %r=0.41605 wdg=2 conn=wye bus=p1rdt3284lv.1.0 Kv=0.12 kva=10.0 EmergHKVA=15.0 %r=0.832101 wdg=3 conn=wye bus=p1rdt3284lv.0.2 Kv=0.12 kva=10.0 EmergHKVA=15.0 %r=0.832101 XHL=1.08 XLT=1.08 XHT=0.72

New Transformer.tr(r:p1rdt3285-p1rdt3285lv) phases=1 windings=3 %loadloss=1.248151 %Noloadloss=0.68 normhkva=11.0 wdg=1 conn=wye bus=p1rdt3285.2 Kv=7.2 kva=10.0 EmergHKVA=15.0 %r=0.41605 wdg=2 conn=wye bus=p1rdt3285lv.1.0 Kv=0.12 kva=10.0 EmergHKVA=15.0 %r=0.832101 wdg=3 conn=wye bus=p1rdt3285lv.0.2 Kv=0.12 kva=10.0 EmergHKVA=15.0 %r=0.832101 XHL=1.08 XLT=1.08 XHT=0.72

New Transformer.tr(r:p1rdt3286-p1rdt3286lv) phases=1 windings=3 %loadloss=0.798816 %Noloadloss=0.37 normhkva=55.0 wdg=1 conn=wye bus=p1rdt3286.3 Kv=7.2 kva=50.0 EmergHKVA=75.0 %r=0.266272 wdg=2 conn=wye bus=p1rdt3286lv.1.0 Kv=0.12 kva=50.0 EmergHKVA=75.0 %r=0.532544 wdg=3 conn=wye bus=p1rdt3286lv.0.2 Kv=0.12 kva=50.0 EmergHKVA=75.0 %r=0.532544 XHL=2.4 XLT=2.4 XHT=1.6

New Transformer.tr(r:p1rdt3287-p1rdt3287lv) phases=1 windings=3 %loadloss=0.798816 %Noloadloss=0.37 normhkva=55.0 wdg=1 conn=wye bus=p1rdt3287.1 Kv=7.2 kva=50.0 EmergHKVA=75.0 %r=0.266272 wdg=2 conn=wye bus=p1rdt3287lv.1.0 Kv=0.12 kva=50.0 EmergHKVA=75.0 %r=0.532544 wdg=3 conn=wye bus=p1rdt3287lv.0.2 Kv=0.12 kva=50.0 EmergHKVA=75.0 %r=0.532544 XHL=2.4 XLT=2.4 XHT=1.6

New Transformer.tr(r:p1rdt3496-p1rdt3496lv) phases=1 windings=3 %loadloss=1.248151 %Noloadloss=0.68 normhkva=11.0 wdg=1 conn=wye bus=p1rdt3496.3 Kv=7.2 kva=10.0 EmergHKVA=15.0 %r=0.41605 wdg=2 conn=wye bus=p1rdt3496lv.1.0 Kv=0.12 kva=10.0 EmergHKVA=15.0 %r=0.832101 wdg=3 conn=wye bus=p1rdt3496lv.0.2 Kv=0.12 kva=10.0 EmergHKVA=15.0 %r=0.832101 XHL=1.08 XLT=1.08 XHT=0.72

New Transformer.tr(r:p1rdt3497-p1rdt3497lv) phases=1 windings=3 %loadloss=1.248151 %Noloadloss=0.68 normhkva=11.0 wdg=1 conn=wye bus=p1rdt3497.1 Kv=7.2 kva=10.0 EmergHKVA=15.0 %r=0.41605 wdg=2 conn=wye bus=p1rdt3497lv.1.0 Kv=0.12 kva=10.0 EmergHKVA=15.0 %r=0.832101 wdg=3 conn=wye bus=p1rdt3497lv.0.2 Kv=0.12 kva=10.0 EmergHKVA=15.0 %r=0.832101 XHL=1.08 XLT=1.08 XHT=0.72

New Transformer.tr(r:p1rdt3498-p1rdt3498lv) phases=1 windings=3 %loadloss=1.248151 %Noloadloss=0.68 normhkva=11.0 wdg=1 conn=wye bus=p1rdt3498.1 Kv=7.2 kva=10.0 EmergHKVA=15.0 %r=0.41605 wdg=2 conn=wye bus=p1rdt3498lv.1.0 Kv=0.12 kva=10.0 EmergHKVA=15.0 %r=0.832101 wdg=3 conn=wye bus=p1rdt3498lv.0.2 Kv=0.12 kva=10.0 EmergHKVA=15.0 %r=0.832101 XHL=1.08 XLT=1.08 XHT=0.72

New Transformer.tr(r:p1rdt3499-p1rdt3499lv) phases=1 windings=3 %loadloss=1.248151 %Noloadloss=0.68 normhkva=11.0 wdg=1 conn=wye bus=p1rdt3499.1 Kv=7.2 kva=10.0 EmergHKVA=15.0 %r=0.41605 wdg=2 conn=wye bus=p1rdt3499lv.1.0 Kv=0.12 kva=10.0 EmergHKVA=15.0 %r=0.832101 wdg=3 conn=wye bus=p1rdt3499lv.0.2 Kv=0.12 kva=10.0 EmergHKVA=15.0 %r=0.832101 XHL=1.08 XLT=1.08 XHT=0.72

New Transformer.tr(r:p1rdt3500-p1rdt3500lv) phases=1 windings=3 %loadloss=1.248151 %Noloadloss=0.68 normhkva=11.0 wdg=1 conn=wye bus=p1rdt3500.1 Kv=7.2 kva=10.0 EmergHKVA=15.0 %r=0.41605 wdg=2 conn=wye bus=p1rdt3500lv.1.0 Kv=0.12 kva=10.0 EmergHKVA=15.0 %r=0.832101 wdg=3 conn=wye bus=p1rdt3500lv.0.2 Kv=0.12 kva=10.0 EmergHKVA=15.0 %r=0.832101 XHL=1.08 XLT=1.08 XHT=0.72

New Transformer.tr(r:p1rdt3507-p1rdt3507lv) phases=3 windings=2 %loadloss=1.74408 %Noloadloss=0.6 normhkva=82.5 wdg=1 conn=wye Kv=12.47 kva=75.0 EmergHKVA=112.5 %R=0.87204 bus=p1rdt3507 wdg=2 conn=wye Kv=0.48 kva=75.0 EmergHKVA=112.5 %R=0.87204 bus=p1rdt3507lv XHL=3.2400000000000007

New Transformer.tr(r:p1rdt3508-p1rdt3508lv) phases=1 windings=3 %loadloss=0.798816 %Noloadloss=0.37 normhkva=55.0 wdg=1 conn=wye bus=p1rdt3508.1 Kv=7.2 kva=50.0 EmergHKVA=75.0 %r=0.266272 wdg=2 conn=wye bus=p1rdt3508lv.1.0 Kv=0.12 kva=50.0 EmergHKVA=75.0 %r=0.532544 wdg=3 conn=wye bus=p1rdt3508lv.0.2 Kv=0.12 kva=50.0 EmergHKVA=75.0 %r=0.532544 XHL=2.4 XLT=2.4 XHT=1.6

New Transformer.tr(r:p1rdt3509-p1rdt3509lv) phases=1 windings=3 %loadloss=0.798816 %Noloadloss=0.472 normhkva=27.5 wdg=1 conn=wye bus=p1rdt3509.1 Kv=7.2 kva=25.0 EmergHKVA=37.5 %r=0.266272 wdg=2 conn=wye bus=p1rdt3509lv.1.0 Kv=0.12 kva=25.0 EmergHKVA=37.5 %r=0.532544 wdg=3 conn=wye bus=p1rdt3509lv.0.2 Kv=0.12 kva=25.0 EmergHKVA=37.5 %r=0.532544 XHL=2.4 XLT=2.4 XHT=1.6

New Transformer.tr(r:p1rdt3510-p1rdt3510lv) phases=1 windings=3 %loadloss=0.798816 %Noloadloss=0.472 normhkva=27.5 wdg=1 conn=wye bus=p1rdt3510.1 Kv=7.2 kva=25.0 EmergHKVA=37.5 %r=0.266272 wdg=2 conn=wye bus=p1rdt3510lv.1.0 Kv=0.12 kva=25.0 EmergHKVA=37.5 %r=0.532544 wdg=3 conn=wye bus=p1rdt3510lv.0.2 Kv=0.12 kva=25.0 EmergHKVA=37.5 %r=0.532544 XHL=2.4 XLT=2.4 XHT=1.6

New Transformer.tr(r:p1rdt3511-p1rdt3511lv) phases=1 windings=3 %loadloss=1.248151 %Noloadloss=0.68 normhkva=11.0 wdg=1 conn=wye bus=p1rdt3511.3 Kv=7.2 kva=10.0 EmergHKVA=15.0 %r=0.41605 wdg=2 conn=wye bus=p1rdt3511lv.1.0 Kv=0.12 kva=10.0 EmergHKVA=15.0 %r=0.832101 wdg=3 conn=wye bus=p1rdt3511lv.0.2 Kv=0.12 kva=10.0 EmergHKVA=15.0 %r=0.832101 XHL=1.08 XLT=1.08 XHT=0.72

New Transformer.tr(r:p1rdt3512-p1rdt3512lv) phases=1 windings=3 %loadloss=1.248151 %Noloadloss=0.68 normhkva=11.0 wdg=1 conn=wye bus=p1rdt3512.3 Kv=7.2 kva=10.0 EmergHKVA=15.0 %r=0.41605 wdg=2 conn=wye bus=p1rdt3512lv.1.0 Kv=0.12 kva=10.0 EmergHKVA=15.0 %r=0.832101 wdg=3 conn=wye bus=p1rdt3512lv.0.2 Kv=0.12 kva=10.0 EmergHKVA=15.0 %r=0.832101 XHL=1.08 XLT=1.08 XHT=0.72

New Transformer.tr(r:p1rdt3513-p1rdt3513lv) phases=1 windings=3 %loadloss=1.248151 %Noloadloss=0.68 normhkva=11.0 wdg=1 conn=wye bus=p1rdt3513.3 Kv=7.2 kva=10.0 EmergHKVA=15.0 %r=0.41605 wdg=2 conn=wye bus=p1rdt3513lv.1.0 Kv=0.12 kva=10.0 EmergHKVA=15.0 %r=0.832101 wdg=3 conn=wye bus=p1rdt3513lv.0.2 Kv=0.12 kva=10.0 EmergHKVA=15.0 %r=0.832101 XHL=1.08 XLT=1.08 XHT=0.72

New Transformer.tr(r:p1rdt3514-p1rdt3514lv) phases=1 windings=3 %loadloss=1.248151 %Noloadloss=0.68 normhkva=11.0 wdg=1 conn=wye bus=p1rdt3514.3 Kv=7.2 kva=10.0 EmergHKVA=15.0 %r=0.41605 wdg=2 conn=wye bus=p1rdt3514lv.1.0 Kv=0.12 kva=10.0 EmergHKVA=15.0 %r=0.832101 wdg=3 conn=wye bus=p1rdt3514lv.0.2 Kv=0.12 kva=10.0 EmergHKVA=15.0 %r=0.832101 XHL=1.08 XLT=1.08 XHT=0.72

New Transformer.tr(r:p1rdt3515-p1rdt3515lv) phases=1 windings=3 %loadloss=1.248151 %Noloadloss=0.68 normhkva=11.0 wdg=1 conn=wye bus=p1rdt3515.3 Kv=7.2 kva=10.0 EmergHKVA=15.0 %r=0.41605 wdg=2 conn=wye bus=p1rdt3515lv.1.0 Kv=0.12 kva=10.0 EmergHKVA=15.0 %r=0.832101 wdg=3 conn=wye bus=p1rdt3515lv.0.2 Kv=0.12 kva=10.0 EmergHKVA=15.0 %r=0.832101 XHL=1.08 XLT=1.08 XHT=0.72

New Transformer.tr(r:p1rdt3516-p1rdt3516lv) phases=1 windings=3 %loadloss=1.248151 %Noloadloss=0.68 normhkva=11.0 wdg=1 conn=wye bus=p1rdt3516.3 Kv=7.2 kva=10.0 EmergHKVA=15.0 %r=0.41605 wdg=2 conn=wye bus=p1rdt3516lv.1.0 Kv=0.12 kva=10.0 EmergHKVA=15.0 %r=0.832101 wdg=3 conn=wye bus=p1rdt3516lv.0.2 Kv=0.12 kva=10.0 EmergHKVA=15.0 %r=0.832101 XHL=1.08 XLT=1.08 XHT=0.72

New Transformer.tr(r:p1rdt3517-p1rdt3517lv) phases=1 windings=3 %loadloss=1.248151 %Noloadloss=0.68 normhkva=11.0 wdg=1 conn=wye bus=p1rdt3517.3 Kv=7.2 kva=10.0 EmergHKVA=15.0 %r=0.41605 wdg=2 conn=wye bus=p1rdt3517lv.1.0 Kv=0.12 kva=10.0 EmergHKVA=15.0 %r=0.832101 wdg=3 conn=wye bus=p1rdt3517lv.0.2 Kv=0.12 kva=10.0 EmergHKVA=15.0 %r=0.832101 XHL=1.08 XLT=1.08 XHT=0.72

New Transformer.tr(r:p1rdt3518-p1rdt3518lv) phases=1 windings=3 %loadloss=1.248151 %Noloadloss=0.68 normhkva=11.0 wdg=1 conn=wye bus=p1rdt3518.3 Kv=7.2 kva=10.0 EmergHKVA=15.0 %r=0.41605 wdg=2 conn=wye bus=p1rdt3518lv.1.0 Kv=0.12 kva=10.0 EmergHKVA=15.0 %r=0.832101 wdg=3 conn=wye bus=p1rdt3518lv.0.2 Kv=0.12 kva=10.0 EmergHKVA=15.0 %r=0.832101 XHL=1.08 XLT=1.08 XHT=0.72

New Transformer.tr(r:p1rdt3519-p1rdt3519lv) phases=1 windings=3 %loadloss=0.798816 %Noloadloss=0.472 normhkva=27.5 wdg=1 conn=wye bus=p1rdt3519.3 Kv=7.2 kva=25.0 EmergHKVA=37.5 %r=0.266272 wdg=2 conn=wye bus=p1rdt3519lv.1.0 Kv=0.12 kva=25.0 EmergHKVA=37.5 %r=0.532544 wdg=3 conn=wye bus=p1rdt3519lv.0.2 Kv=0.12 kva=25.0 EmergHKVA=37.5 %r=0.532544 XHL=2.4 XLT=2.4 XHT=1.6

New Transformer.tr(r:p1rdt3520-p1rdt3520lv) phases=1 windings=3 %loadloss=1.248151 %Noloadloss=0.68 normhkva=11.0 wdg=1 conn=wye bus=p1rdt3520.2 Kv=7.2 kva=10.0 EmergHKVA=15.0 %r=0.41605 wdg=2 conn=wye bus=p1rdt3520lv.1.0 Kv=0.12 kva=10.0 EmergHKVA=15.0 %r=0.832101 wdg=3 conn=wye bus=p1rdt3520lv.0.2 Kv=0.12 kva=10.0 EmergHKVA=15.0 %r=0.832101 XHL=1.08 XLT=1.08 XHT=0.72

New Transformer.tr(r:p1rdt3540-p1rdt3540lv) phases=1 windings=3 %loadloss=1.248151 %Noloadloss=0.68 normhkva=11.0 wdg=1 conn=wye bus=p1rdt3540.2 Kv=7.2 kva=10.0 EmergHKVA=15.0 %r=0.41605 wdg=2 conn=wye bus=p1rdt3540lv.1.0 Kv=0.12 kva=10.0 EmergHKVA=15.0 %r=0.832101 wdg=3 conn=wye bus=p1rdt3540lv.0.2 Kv=0.12 kva=10.0 EmergHKVA=15.0 %r=0.832101 XHL=1.08 XLT=1.08 XHT=0.72

New Transformer.tr(r:p1rdt3541-p1rdt3541lv) phases=1 windings=3 %loadloss=1.248151 %Noloadloss=0.68 normhkva=11.0 wdg=1 conn=wye bus=p1rdt3541.3 Kv=7.2 kva=10.0 EmergHKVA=15.0 %r=0.41605 wdg=2 conn=wye bus=p1rdt3541lv.1.0 Kv=0.12 kva=10.0 EmergHKVA=15.0 %r=0.832101 wdg=3 conn=wye bus=p1rdt3541lv.0.2 Kv=0.12 kva=10.0 EmergHKVA=15.0 %r=0.832101 XHL=1.08 XLT=1.08 XHT=0.72

New Transformer.tr(r:p1rdt3542-p1rdt3542lv) phases=1 windings=3 %loadloss=1.248151 %Noloadloss=0.68 normhkva=11.0 wdg=1 conn=wye bus=p1rdt3542.3 Kv=7.2 kva=10.0 EmergHKVA=15.0 %r=0.41605 wdg=2 conn=wye bus=p1rdt3542lv.1.0 Kv=0.12 kva=10.0 EmergHKVA=15.0 %r=0.832101 wdg=3 conn=wye bus=p1rdt3542lv.0.2 Kv=0.12 kva=10.0 EmergHKVA=15.0 %r=0.832101 XHL=1.08 XLT=1.08 XHT=0.72

New Transformer.tr(r:p1rdt3543-p1rdt3543lv) phases=1 windings=3 %loadloss=0.798816 %Noloadloss=0.472 normhkva=27.5 wdg=1 conn=wye bus=p1rdt3543.3 Kv=7.2 kva=25.0 EmergHKVA=37.5 %r=0.266272 wdg=2 conn=wye bus=p1rdt3543lv.1.0 Kv=0.12 kva=25.0 EmergHKVA=37.5 %r=0.532544 wdg=3 conn=wye bus=p1rdt3543lv.0.2 Kv=0.12 kva=25.0 EmergHKVA=37.5 %r=0.532544 XHL=2.4 XLT=2.4 XHT=1.6

New Transformer.tr(r:p1rdt3544-p1rdt3544lv) phases=1 windings=3 %loadloss=1.248151 %Noloadloss=0.68 normhkva=11.0 wdg=1 conn=wye bus=p1rdt3544.3 Kv=7.2 kva=10.0 EmergHKVA=15.0 %r=0.41605 wdg=2 conn=wye bus=p1rdt3544lv.1.0 Kv=0.12 kva=10.0 EmergHKVA=15.0 %r=0.832101 wdg=3 conn=wye bus=p1rdt3544lv.0.2 Kv=0.12 kva=10.0 EmergHKVA=15.0 %r=0.832101 XHL=1.08 XLT=1.08 XHT=0.72

New Transformer.tr(r:p1rdt3545-p1rdt3545lv) phases=1 windings=3 %loadloss=1.248151 %Noloadloss=0.68 normhkva=11.0 wdg=1 conn=wye bus=p1rdt3545.1 Kv=7.2 kva=10.0 EmergHKVA=15.0 %r=0.41605 wdg=2 conn=wye bus=p1rdt3545lv.1.0 Kv=0.12 kva=10.0 EmergHKVA=15.0 %r=0.832101 wdg=3 conn=wye bus=p1rdt3545lv.0.2 Kv=0.12 kva=10.0 EmergHKVA=15.0 %r=0.832101 XHL=1.08 XLT=1.08 XHT=0.72

New Transformer.tr(r:p1rdt3546-p1rdt3546lv) phases=1 windings=3 %loadloss=1.248151 %Noloadloss=0.68 normhkva=11.0 wdg=1 conn=wye bus=p1rdt3546.3 Kv=7.2 kva=10.0 EmergHKVA=15.0 %r=0.41605 wdg=2 conn=wye bus=p1rdt3546lv.1.0 Kv=0.12 kva=10.0 EmergHKVA=15.0 %r=0.832101 wdg=3 conn=wye bus=p1rdt3546lv.0.2 Kv=0.12 kva=10.0 EmergHKVA=15.0 %r=0.832101 XHL=1.08 XLT=1.08 XHT=0.72

New Transformer.tr(r:p1rdt3547-p1rdt3547lv) phases=1 windings=3 %loadloss=0.49926 %Noloadloss=0.38 normhkva=82.5 wdg=1 conn=wye bus=p1rdt3547.2 Kv=7.2 kva=75.0 EmergHKVA=112.5 %r=0.16642 wdg=2 conn=wye bus=p1rdt3547lv.1.0 Kv=0.12 kva=75.0 EmergHKVA=112.5 %r=0.33284 wdg=3 conn=wye bus=p1rdt3547lv.0.2 Kv=0.12 kva=75.0 EmergHKVA=112.5 %r=0.33284 XHL=2.4 XLT=2.4 XHT=1.6

New Transformer.tr(r:p1rdt3548-p1rdt3548lv) phases=3 windings=2 %loadloss=1.74408 %Noloadloss=0.6 normhkva=82.5 wdg=1 conn=wye Kv=12.47 kva=75.0 EmergHKVA=112.5 %R=0.87204 bus=p1rdt3548 wdg=2 conn=wye Kv=0.48 kva=75.0 EmergHKVA=112.5 %R=0.87204 bus=p1rdt3548lv XHL=3.2400000000000007

New Transformer.tr(r:p1rdt3549-p1rdt3549lv) phases=1 windings=3 %loadloss=1.248151 %Noloadloss=0.68 normhkva=11.0 wdg=1 conn=wye bus=p1rdt3549.1 Kv=7.2 kva=10.0 EmergHKVA=15.0 %r=0.41605 wdg=2 conn=wye bus=p1rdt3549lv.1.0 Kv=0.12 kva=10.0 EmergHKVA=15.0 %r=0.832101 wdg=3 conn=wye bus=p1rdt3549lv.0.2 Kv=0.12 kva=10.0 EmergHKVA=15.0 %r=0.832101 XHL=1.08 XLT=1.08 XHT=0.72

New Transformer.tr(r:p1rdt3550-p1rdt3550lv) phases=1 windings=3 %loadloss=1.248151 %Noloadloss=0.68 normhkva=11.0 wdg=1 conn=wye bus=p1rdt3550.2 Kv=7.2 kva=10.0 EmergHKVA=15.0 %r=0.41605 wdg=2 conn=wye bus=p1rdt3550lv.1.0 Kv=0.12 kva=10.0 EmergHKVA=15.0 %r=0.832101 wdg=3 conn=wye bus=p1rdt3550lv.0.2 Kv=0.12 kva=10.0 EmergHKVA=15.0 %r=0.832101 XHL=1.08 XLT=1.08 XHT=0.72

New Transformer.tr(r:p1rdt3551-p1rdt3551lv) phases=1 windings=3 %loadloss=1.248151 %Noloadloss=0.68 normhkva=11.0 wdg=1 conn=wye bus=p1rdt3551.3 Kv=7.2 kva=10.0 EmergHKVA=15.0 %r=0.41605 wdg=2 conn=wye bus=p1rdt3551lv.1.0 Kv=0.12 kva=10.0 EmergHKVA=15.0 %r=0.832101 wdg=3 conn=wye bus=p1rdt3551lv.0.2 Kv=0.12 kva=10.0 EmergHKVA=15.0 %r=0.832101 XHL=1.08 XLT=1.08 XHT=0.72

New Transformer.tr(r:p1rdt3552-p1rdt3552lv) phases=1 windings=3 %loadloss=1.248151 %Noloadloss=0.68 normhkva=11.0 wdg=1 conn=wye bus=p1rdt3552.1 Kv=7.2 kva=10.0 EmergHKVA=15.0 %r=0.41605 wdg=2 conn=wye bus=p1rdt3552lv.1.0 Kv=0.12 kva=10.0 EmergHKVA=15.0 %r=0.832101 wdg=3 conn=wye bus=p1rdt3552lv.0.2 Kv=0.12 kva=10.0 EmergHKVA=15.0 %r=0.832101 XHL=1.08 XLT=1.08 XHT=0.72

New Transformer.tr(r:p1rdt3566-p1rdt3566lv) phases=1 windings=3 %loadloss=1.248151 %Noloadloss=0.68 normhkva=11.0 wdg=1 conn=wye bus=p1rdt3566.1 Kv=7.2 kva=10.0 EmergHKVA=15.0 %r=0.41605 wdg=2 conn=wye bus=p1rdt3566lv.1.0 Kv=0.12 kva=10.0 EmergHKVA=15.0 %r=0.832101 wdg=3 conn=wye bus=p1rdt3566lv.0.2 Kv=0.12 kva=10.0 EmergHKVA=15.0 %r=0.832101 XHL=1.08 XLT=1.08 XHT=0.72

New Transformer.tr(r:p1rdt3567-p1rdt3567lv) phases=1 windings=3 %loadloss=0.798816 %Noloadloss=0.472 normhkva=27.5 wdg=1 conn=wye bus=p1rdt3567.1 Kv=7.2 kva=25.0 EmergHKVA=37.5 %r=0.266272 wdg=2 conn=wye bus=p1rdt3567lv.1.0 Kv=0.12 kva=25.0 EmergHKVA=37.5 %r=0.532544 wdg=3 conn=wye bus=p1rdt3567lv.0.2 Kv=0.12 kva=25.0 EmergHKVA=37.5 %r=0.532544 XHL=2.4 XLT=2.4 XHT=1.6

New Transformer.tr(r:p1rdt3568-p1rdt3568lv) phases=1 windings=3 %loadloss=0.798816 %Noloadloss=0.472 normhkva=27.5 wdg=1 conn=wye bus=p1rdt3568.2 Kv=7.2 kva=25.0 EmergHKVA=37.5 %r=0.266272 wdg=2 conn=wye bus=p1rdt3568lv.1.0 Kv=0.12 kva=25.0 EmergHKVA=37.5 %r=0.532544 wdg=3 conn=wye bus=p1rdt3568lv.0.2 Kv=0.12 kva=25.0 EmergHKVA=37.5 %r=0.532544 XHL=2.4 XLT=2.4 XHT=1.6

New Transformer.tr(r:p1rdt3569-p1rdt3569lv) phases=1 windings=3 %loadloss=1.248151 %Noloadloss=0.68 normhkva=11.0 wdg=1 conn=wye bus=p1rdt3569.1 Kv=7.2 kva=10.0 EmergHKVA=15.0 %r=0.41605 wdg=2 conn=wye bus=p1rdt3569lv.1.0 Kv=0.12 kva=10.0 EmergHKVA=15.0 %r=0.832101 wdg=3 conn=wye bus=p1rdt3569lv.0.2 Kv=0.12 kva=10.0 EmergHKVA=15.0 %r=0.832101 XHL=1.08 XLT=1.08 XHT=0.72

New Transformer.tr(r:p1rdt3570-p1rdt3570lv) phases=1 windings=3 %loadloss=1.248151 %Noloadloss=0.68 normhkva=11.0 wdg=1 conn=wye bus=p1rdt3570.3 Kv=7.2 kva=10.0 EmergHKVA=15.0 %r=0.41605 wdg=2 conn=wye bus=p1rdt3570lv.1.0 Kv=0.12 kva=10.0 EmergHKVA=15.0 %r=0.832101 wdg=3 conn=wye bus=p1rdt3570lv.0.2 Kv=0.12 kva=10.0 EmergHKVA=15.0 %r=0.832101 XHL=1.08 XLT=1.08 XHT=0.72

New Transformer.tr(r:p1rdt3783-p1rdt3783lv) phases=3 windings=2 %loadloss=1.74408 %Noloadloss=0.6 normhkva=82.5 wdg=1 conn=wye Kv=12.47 kva=75.0 EmergHKVA=112.5 %R=0.87204 bus=p1rdt3783 wdg=2 conn=wye Kv=0.48 kva=75.0 EmergHKVA=112.5 %R=0.87204 bus=p1rdt3783lv XHL=3.2400000000000007

New Transformer.tr(r:p1rdt3784-p1rdt3784lv) phases=3 windings=2 %loadloss=2.1568 %Noloadloss=0.516667 normhkva=165.0 wdg=1 conn=wye Kv=12.47 kva=150.0 EmergHKVA=225.0 %R=1.0784 bus=p1rdt3784 wdg=2 conn=wye Kv=0.48 kva=150.0 EmergHKVA=225.0 %R=1.0784 bus=p1rdt3784lv XHL=3.39

New Transformer.tr(r:p1rdt4066-p1rdt4066lv) phases=1 windings=3 %loadloss=1.248151 %Noloadloss=0.68 normhkva=11.0 wdg=1 conn=wye bus=p1rdt4066.1 Kv=7.2 kva=10.0 EmergHKVA=15.0 %r=0.41605 wdg=2 conn=wye bus=p1rdt4066lv.1.0 Kv=0.12 kva=10.0 EmergHKVA=15.0 %r=0.832101 wdg=3 conn=wye bus=p1rdt4066lv.0.2 Kv=0.12 kva=10.0 EmergHKVA=15.0 %r=0.832101 XHL=1.08 XLT=1.08 XHT=0.72

New Transformer.tr(r:p1rdt4384-p1rdt4384lv) phases=1 windings=3 %loadloss=1.248151 %Noloadloss=0.68 normhkva=11.0 wdg=1 conn=wye bus=p1rdt4384.1 Kv=7.2 kva=10.0 EmergHKVA=15.0 %r=0.41605 wdg=2 conn=wye bus=p1rdt4384lv.1.0 Kv=0.12 kva=10.0 EmergHKVA=15.0 %r=0.832101 wdg=3 conn=wye bus=p1rdt4384lv.0.2 Kv=0.12 kva=10.0 EmergHKVA=15.0 %r=0.832101 XHL=1.08 XLT=1.08 XHT=0.72

New Transformer.tr(r:p1rdt4455-p1rdt4455lv) phases=1 windings=3 %loadloss=1.248151 %Noloadloss=0.68 normhkva=11.0 wdg=1 conn=wye bus=p1rdt4455.3 Kv=7.2 kva=10.0 EmergHKVA=15.0 %r=0.41605 wdg=2 conn=wye bus=p1rdt4455lv.1.0 Kv=0.12 kva=10.0 EmergHKVA=15.0 %r=0.832101 wdg=3 conn=wye bus=p1rdt4455lv.0.2 Kv=0.12 kva=10.0 EmergHKVA=15.0 %r=0.832101 XHL=1.08 XLT=1.08 XHT=0.72

New Transformer.tr(r:p1rdt4456-p1rdt4456lv) phases=1 windings=3 %loadloss=1.248151 %Noloadloss=0.68 normhkva=11.0 wdg=1 conn=wye bus=p1rdt4456.2 Kv=7.2 kva=10.0 EmergHKVA=15.0 %r=0.41605 wdg=2 conn=wye bus=p1rdt4456lv.1.0 Kv=0.12 kva=10.0 EmergHKVA=15.0 %r=0.832101 wdg=3 conn=wye bus=p1rdt4456lv.0.2 Kv=0.12 kva=10.0 EmergHKVA=15.0 %r=0.832101 XHL=1.08 XLT=1.08 XHT=0.72

New Transformer.tr(r:p1rdt4457-p1rdt4457lv) phases=1 windings=3 %loadloss=1.248151 %Noloadloss=0.68 normhkva=11.0 wdg=1 conn=wye bus=p1rdt4457.1 Kv=7.2 kva=10.0 EmergHKVA=15.0 %r=0.41605 wdg=2 conn=wye bus=p1rdt4457lv.1.0 Kv=0.12 kva=10.0 EmergHKVA=15.0 %r=0.832101 wdg=3 conn=wye bus=p1rdt4457lv.0.2 Kv=0.12 kva=10.0 EmergHKVA=15.0 %r=0.832101 XHL=1.08 XLT=1.08 XHT=0.72

New Transformer.tr(r:p1rdt4513-p1rdt4513lv) phases=1 windings=3 %loadloss=0.798816 %Noloadloss=0.472 normhkva=27.5 wdg=1 conn=wye bus=p1rdt4513.1 Kv=7.2 kva=25.0 EmergHKVA=37.5 %r=0.266272 wdg=2 conn=wye bus=p1rdt4513lv.1.0 Kv=0.12 kva=25.0 EmergHKVA=37.5 %r=0.532544 wdg=3 conn=wye bus=p1rdt4513lv.0.2 Kv=0.12 kva=25.0 EmergHKVA=37.5 %r=0.532544 XHL=2.4 XLT=2.4 XHT=1.6

New Transformer.tr(r:p1rdt4514-p1rdt4514lv) phases=1 windings=3 %loadloss=0.798816 %Noloadloss=0.37 normhkva=55.0 wdg=1 conn=wye bus=p1rdt4514.1 Kv=7.2 kva=50.0 EmergHKVA=75.0 %r=0.266272 wdg=2 conn=wye bus=p1rdt4514lv.1.0 Kv=0.12 kva=50.0 EmergHKVA=75.0 %r=0.532544 wdg=3 conn=wye bus=p1rdt4514lv.0.2 Kv=0.12 kva=50.0 EmergHKVA=75.0 %r=0.532544 XHL=2.4 XLT=2.4 XHT=1.6

New Transformer.tr(r:p1rdt4518-p1rdt4518lv) phases=1 windings=3 %loadloss=1.248151 %Noloadloss=0.68 normhkva=11.0 wdg=1 conn=wye bus=p1rdt4518.2 Kv=7.2 kva=10.0 EmergHKVA=15.0 %r=0.41605 wdg=2 conn=wye bus=p1rdt4518lv.1.0 Kv=0.12 kva=10.0 EmergHKVA=15.0 %r=0.832101 wdg=3 conn=wye bus=p1rdt4518lv.0.2 Kv=0.12 kva=10.0 EmergHKVA=15.0 %r=0.832101 XHL=1.08 XLT=1.08 XHT=0.72

New Transformer.tr(r:p1rdt4519-p1rdt4519lv) phases=1 windings=3 %loadloss=0.49926 %Noloadloss=0.38 normhkva=82.5 wdg=1 conn=wye bus=p1rdt4519.1 Kv=7.2 kva=75.0 EmergHKVA=112.5 %r=0.16642 wdg=2 conn=wye bus=p1rdt4519lv.1.0 Kv=0.12 kva=75.0 EmergHKVA=112.5 %r=0.33284 wdg=3 conn=wye bus=p1rdt4519lv.0.2 Kv=0.12 kva=75.0 EmergHKVA=112.5 %r=0.33284 XHL=2.4 XLT=2.4 XHT=1.6

New Transformer.tr(r:p1rdt4520-p1rdt4520lv) phases=1 windings=3 %loadloss=1.248151 %Noloadloss=0.68 normhkva=11.0 wdg=1 conn=wye bus=p1rdt4520.3 Kv=7.2 kva=10.0 EmergHKVA=15.0 %r=0.41605 wdg=2 conn=wye bus=p1rdt4520lv.1.0 Kv=0.12 kva=10.0 EmergHKVA=15.0 %r=0.832101 wdg=3 conn=wye bus=p1rdt4520lv.0.2 Kv=0.12 kva=10.0 EmergHKVA=15.0 %r=0.832101 XHL=1.08 XLT=1.08 XHT=0.72

New Transformer.tr(r:p1rdt4528-p1rdt4528lv) phases=1 windings=3 %loadloss=0.49926 %Noloadloss=0.38 normhkva=82.5 wdg=1 conn=wye bus=p1rdt4528.2 Kv=7.2 kva=75.0 EmergHKVA=112.5 %r=0.16642 wdg=2 conn=wye bus=p1rdt4528lv.1.0 Kv=0.12 kva=75.0 EmergHKVA=112.5 %r=0.33284 wdg=3 conn=wye bus=p1rdt4528lv.0.2 Kv=0.12 kva=75.0 EmergHKVA=112.5 %r=0.33284 XHL=2.4 XLT=2.4 XHT=1.6

New Transformer.tr(r:p1rdt4529-p1rdt4529lv) phases=1 windings=3 %loadloss=0.798816 %Noloadloss=0.37 normhkva=55.0 wdg=1 conn=wye bus=p1rdt4529.3 Kv=7.2 kva=50.0 EmergHKVA=75.0 %r=0.266272 wdg=2 conn=wye bus=p1rdt4529lv.1.0 Kv=0.12 kva=50.0 EmergHKVA=75.0 %r=0.532544 wdg=3 conn=wye bus=p1rdt4529lv.0.2 Kv=0.12 kva=50.0 EmergHKVA=75.0 %r=0.532544 XHL=2.4 XLT=2.4 XHT=1.6

New Transformer.tr(r:p1rdt4530-p1rdt4530lv) phases=3 windings=2 %loadloss=1.82396 %Noloadloss=0.325 normhkva=330.0 wdg=1 conn=wye Kv=12.47 kva=300.0 EmergHKVA=450.0 %R=0.91198 bus=p1rdt4530 wdg=2 conn=wye Kv=0.48 kva=300.0 EmergHKVA=450.0 %R=0.91198 bus=p1rdt4530lv XHL=3.7599999999999993

New Transformer.tr(r:p1rdt4661-p1rdt4661lv) phases=3 windings=2 %loadloss=1.4645 %Noloadloss=0.266 normhkva=550.0 wdg=1 conn=wye Kv=12.47 kva=500.0 EmergHKVA=750.0 %R=0.73225 bus=p1rdt4661 wdg=2 conn=wye Kv=0.48 kva=500.0 EmergHKVA=750.0 %R=0.73225 bus=p1rdt4661lv XHL=4.36

New Transformer.tr(r:p1rdt4662-p1rdt4662lv) phases=1 windings=3 %loadloss=1.248151 %Noloadloss=0.68 normhkva=11.0 wdg=1 conn=wye bus=p1rdt4662.1 Kv=7.2 kva=10.0 EmergHKVA=15.0 %r=0.41605 wdg=2 conn=wye bus=p1rdt4662lv.1.0 Kv=0.12 kva=10.0 EmergHKVA=15.0 %r=0.832101 wdg=3 conn=wye bus=p1rdt4662lv.0.2 Kv=0.12 kva=10.0 EmergHKVA=15.0 %r=0.832101 XHL=1.08 XLT=1.08 XHT=0.72

New Transformer.tr(r:p1rdt4668-p1rdt4668lv) phases=1 windings=3 %loadloss=0.798816 %Noloadloss=0.472 normhkva=27.5 wdg=1 conn=wye bus=p1rdt4668.1 Kv=7.2 kva=25.0 EmergHKVA=37.5 %r=0.266272 wdg=2 conn=wye bus=p1rdt4668lv.1.0 Kv=0.12 kva=25.0 EmergHKVA=37.5 %r=0.532544 wdg=3 conn=wye bus=p1rdt4668lv.0.2 Kv=0.12 kva=25.0 EmergHKVA=37.5 %r=0.532544 XHL=2.4 XLT=2.4 XHT=1.6

New Transformer.tr(r:p1rdt4669-p1rdt4669lv) phases=1 windings=3 %loadloss=0.798816 %Noloadloss=0.472 normhkva=27.5 wdg=1 conn=wye bus=p1rdt4669.1 Kv=7.2 kva=25.0 EmergHKVA=37.5 %r=0.266272 wdg=2 conn=wye bus=p1rdt4669lv.1.0 Kv=0.12 kva=25.0 EmergHKVA=37.5 %r=0.532544 wdg=3 conn=wye bus=p1rdt4669lv.0.2 Kv=0.12 kva=25.0 EmergHKVA=37.5 %r=0.532544 XHL=2.4 XLT=2.4 XHT=1.6

New Transformer.tr(r:p1rdt4670-p1rdt4670lv) phases=1 windings=3 %loadloss=1.248151 %Noloadloss=0.68 normhkva=11.0 wdg=1 conn=wye bus=p1rdt4670.3 Kv=7.2 kva=10.0 EmergHKVA=15.0 %r=0.41605 wdg=2 conn=wye bus=p1rdt4670lv.1.0 Kv=0.12 kva=10.0 EmergHKVA=15.0 %r=0.832101 wdg=3 conn=wye bus=p1rdt4670lv.0.2 Kv=0.12 kva=10.0 EmergHKVA=15.0 %r=0.832101 XHL=1.08 XLT=1.08 XHT=0.72

New Transformer.tr(r:p1rdt4671-p1rdt4671lv) phases=1 windings=3 %loadloss=1.248151 %Noloadloss=0.68 normhkva=11.0 wdg=1 conn=wye bus=p1rdt4671.3 Kv=7.2 kva=10.0 EmergHKVA=15.0 %r=0.41605 wdg=2 conn=wye bus=p1rdt4671lv.1.0 Kv=0.12 kva=10.0 EmergHKVA=15.0 %r=0.832101 wdg=3 conn=wye bus=p1rdt4671lv.0.2 Kv=0.12 kva=10.0 EmergHKVA=15.0 %r=0.832101 XHL=1.08 XLT=1.08 XHT=0.72

New Transformer.tr(r:p1rdt4674-p1rdt4674lv) phases=1 windings=3 %loadloss=1.248151 %Noloadloss=0.68 normhkva=11.0 wdg=1 conn=wye bus=p1rdt4674.2 Kv=7.2 kva=10.0 EmergHKVA=15.0 %r=0.41605 wdg=2 conn=wye bus=p1rdt4674lv.1.0 Kv=0.12 kva=10.0 EmergHKVA=15.0 %r=0.832101 wdg=3 conn=wye bus=p1rdt4674lv.0.2 Kv=0.12 kva=10.0 EmergHKVA=15.0 %r=0.832101 XHL=1.08 XLT=1.08 XHT=0.72

New Transformer.tr(r:p1rdt4675-p1rdt4675lv) phases=1 windings=3 %loadloss=0.798816 %Noloadloss=0.472 normhkva=27.5 wdg=1 conn=wye bus=p1rdt4675.2 Kv=7.2 kva=25.0 EmergHKVA=37.5 %r=0.266272 wdg=2 conn=wye bus=p1rdt4675lv.1.0 Kv=0.12 kva=25.0 EmergHKVA=37.5 %r=0.532544 wdg=3 conn=wye bus=p1rdt4675lv.0.2 Kv=0.12 kva=25.0 EmergHKVA=37.5 %r=0.532544 XHL=2.4 XLT=2.4 XHT=1.6

New Transformer.tr(r:p1rdt4676-p1rdt4676lv) phases=1 windings=3 %loadloss=1.248151 %Noloadloss=0.68 normhkva=11.0 wdg=1 conn=wye bus=p1rdt4676.2 Kv=7.2 kva=10.0 EmergHKVA=15.0 %r=0.41605 wdg=2 conn=wye bus=p1rdt4676lv.1.0 Kv=0.12 kva=10.0 EmergHKVA=15.0 %r=0.832101 wdg=3 conn=wye bus=p1rdt4676lv.0.2 Kv=0.12 kva=10.0 EmergHKVA=15.0 %r=0.832101 XHL=1.08 XLT=1.08 XHT=0.72

New Transformer.tr(r:p1rdt4677-p1rdt4677lv) phases=1 windings=3 %loadloss=1.248151 %Noloadloss=0.68 normhkva=11.0 wdg=1 conn=wye bus=p1rdt4677.2 Kv=7.2 kva=10.0 EmergHKVA=15.0 %r=0.41605 wdg=2 conn=wye bus=p1rdt4677lv.1.0 Kv=0.12 kva=10.0 EmergHKVA=15.0 %r=0.832101 wdg=3 conn=wye bus=p1rdt4677lv.0.2 Kv=0.12 kva=10.0 EmergHKVA=15.0 %r=0.832101 XHL=1.08 XLT=1.08 XHT=0.72

New Transformer.tr(r:p1rdt4678-p1rdt4678lv) phases=1 windings=3 %loadloss=1.248151 %Noloadloss=0.68 normhkva=11.0 wdg=1 conn=wye bus=p1rdt4678.2 Kv=7.2 kva=10.0 EmergHKVA=15.0 %r=0.41605 wdg=2 conn=wye bus=p1rdt4678lv.1.0 Kv=0.12 kva=10.0 EmergHKVA=15.0 %r=0.832101 wdg=3 conn=wye bus=p1rdt4678lv.0.2 Kv=0.12 kva=10.0 EmergHKVA=15.0 %r=0.832101 XHL=1.08 XLT=1.08 XHT=0.72

New Transformer.tr(r:p1rdt4679-p1rdt4679lv) phases=1 windings=3 %loadloss=1.248151 %Noloadloss=0.68 normhkva=11.0 wdg=1 conn=wye bus=p1rdt4679.2 Kv=7.2 kva=10.0 EmergHKVA=15.0 %r=0.41605 wdg=2 conn=wye bus=p1rdt4679lv.1.0 Kv=0.12 kva=10.0 EmergHKVA=15.0 %r=0.832101 wdg=3 conn=wye bus=p1rdt4679lv.0.2 Kv=0.12 kva=10.0 EmergHKVA=15.0 %r=0.832101 XHL=1.08 XLT=1.08 XHT=0.72

New Transformer.tr(r:p1rdt4680-p1rdt4680lv) phases=1 windings=3 %loadloss=1.248151 %Noloadloss=0.68 normhkva=11.0 wdg=1 conn=wye bus=p1rdt4680.1 Kv=7.2 kva=10.0 EmergHKVA=15.0 %r=0.41605 wdg=2 conn=wye bus=p1rdt4680lv.1.0 Kv=0.12 kva=10.0 EmergHKVA=15.0 %r=0.832101 wdg=3 conn=wye bus=p1rdt4680lv.0.2 Kv=0.12 kva=10.0 EmergHKVA=15.0 %r=0.832101 XHL=1.08 XLT=1.08 XHT=0.72

New Transformer.tr(r:p1rdt4681-p1rdt4681lv) phases=1 windings=3 %loadloss=1.248151 %Noloadloss=0.68 normhkva=11.0 wdg=1 conn=wye bus=p1rdt4681.3 Kv=7.2 kva=10.0 EmergHKVA=15.0 %r=0.41605 wdg=2 conn=wye bus=p1rdt4681lv.1.0 Kv=0.12 kva=10.0 EmergHKVA=15.0 %r=0.832101 wdg=3 conn=wye bus=p1rdt4681lv.0.2 Kv=0.12 kva=10.0 EmergHKVA=15.0 %r=0.832101 XHL=1.08 XLT=1.08 XHT=0.72

New Transformer.tr(r:p1rdt4682-p1rdt4682lv) phases=1 windings=3 %loadloss=1.248151 %Noloadloss=0.68 normhkva=11.0 wdg=1 conn=wye bus=p1rdt4682.2 Kv=7.2 kva=10.0 EmergHKVA=15.0 %r=0.41605 wdg=2 conn=wye bus=p1rdt4682lv.1.0 Kv=0.12 kva=10.0 EmergHKVA=15.0 %r=0.832101 wdg=3 conn=wye bus=p1rdt4682lv.0.2 Kv=0.12 kva=10.0 EmergHKVA=15.0 %r=0.832101 XHL=1.08 XLT=1.08 XHT=0.72

New Transformer.tr(r:p1rdt4683-p1rdt4683lv) phases=1 windings=3 %loadloss=1.248151 %Noloadloss=0.68 normhkva=11.0 wdg=1 conn=wye bus=p1rdt4683.1 Kv=7.2 kva=10.0 EmergHKVA=15.0 %r=0.41605 wdg=2 conn=wye bus=p1rdt4683lv.1.0 Kv=0.12 kva=10.0 EmergHKVA=15.0 %r=0.832101 wdg=3 conn=wye bus=p1rdt4683lv.0.2 Kv=0.12 kva=10.0 EmergHKVA=15.0 %r=0.832101 XHL=1.08 XLT=1.08 XHT=0.72

New Transformer.tr(r:p1rdt4684-p1rdt4684lv) phases=1 windings=3 %loadloss=0.798816 %Noloadloss=0.37 normhkva=55.0 wdg=1 conn=wye bus=p1rdt4684.2 Kv=7.2 kva=50.0 EmergHKVA=75.0 %r=0.266272 wdg=2 conn=wye bus=p1rdt4684lv.1.0 Kv=0.12 kva=50.0 EmergHKVA=75.0 %r=0.532544 wdg=3 conn=wye bus=p1rdt4684lv.0.2 Kv=0.12 kva=50.0 EmergHKVA=75.0 %r=0.532544 XHL=2.4 XLT=2.4 XHT=1.6

New Transformer.tr(r:p1rdt4685-p1rdt4685lv) phases=1 windings=3 %loadloss=1.248151 %Noloadloss=0.68 normhkva=11.0 wdg=1 conn=wye bus=p1rdt4685.1 Kv=7.2 kva=10.0 EmergHKVA=15.0 %r=0.41605 wdg=2 conn=wye bus=p1rdt4685lv.1.0 Kv=0.12 kva=10.0 EmergHKVA=15.0 %r=0.832101 wdg=3 conn=wye bus=p1rdt4685lv.0.2 Kv=0.12 kva=10.0 EmergHKVA=15.0 %r=0.832101 XHL=1.08 XLT=1.08 XHT=0.72

New Transformer.tr(r:p1rdt4686-p1rdt4686lv) phases=1 windings=3 %loadloss=1.248151 %Noloadloss=0.68 normhkva=11.0 wdg=1 conn=wye bus=p1rdt4686.1 Kv=7.2 kva=10.0 EmergHKVA=15.0 %r=0.41605 wdg=2 conn=wye bus=p1rdt4686lv.1.0 Kv=0.12 kva=10.0 EmergHKVA=15.0 %r=0.832101 wdg=3 conn=wye bus=p1rdt4686lv.0.2 Kv=0.12 kva=10.0 EmergHKVA=15.0 %r=0.832101 XHL=1.08 XLT=1.08 XHT=0.72

New Transformer.tr(r:p1rdt4687-p1rdt4687lv) phases=1 windings=3 %loadloss=1.248151 %Noloadloss=0.68 normhkva=11.0 wdg=1 conn=wye bus=p1rdt4687.3 Kv=7.2 kva=10.0 EmergHKVA=15.0 %r=0.41605 wdg=2 conn=wye bus=p1rdt4687lv.1.0 Kv=0.12 kva=10.0 EmergHKVA=15.0 %r=0.832101 wdg=3 conn=wye bus=p1rdt4687lv.0.2 Kv=0.12 kva=10.0 EmergHKVA=15.0 %r=0.832101 XHL=1.08 XLT=1.08 XHT=0.72

New Transformer.tr(r:p1rdt4688-p1rdt4688lv) phases=1 windings=3 %loadloss=1.248151 %Noloadloss=0.68 normhkva=11.0 wdg=1 conn=wye bus=p1rdt4688.2 Kv=7.2 kva=10.0 EmergHKVA=15.0 %r=0.41605 wdg=2 conn=wye bus=p1rdt4688lv.1.0 Kv=0.12 kva=10.0 EmergHKVA=15.0 %r=0.832101 wdg=3 conn=wye bus=p1rdt4688lv.0.2 Kv=0.12 kva=10.0 EmergHKVA=15.0 %r=0.832101 XHL=1.08 XLT=1.08 XHT=0.72

...