PyDSS/api/src/tmp_pydss_project/project1/DSSfiles/218672ac-d416-4e9f-8578-0d2a531aa33c_distribution_federate/Loads_new.dss
New Load.load_p1rlv3262_1 conn=wye bus1=p1rlv3262.1 kV=0.12 Vminpu=0.8 Vmaxpu=1.2 model=1 kva=0.5300050000000001 pf=1.0 Phases=1
New Load.load_p1rlv3262_2 conn=wye bus1=p1rlv3262.2 kV=0.12 Vminpu=0.8 Vmaxpu=1.2 model=1 kva=0.5300050000000001 pf=1.0 Phases=1
New Load.load_p1rlv3266 conn=wye bus1=p1rlv3266.1.2.3 kV=0.48 Vminpu=0.8 Vmaxpu=1.2 model=1 kva=23.7402 pf=1.0 Phases=3
New Load.load_p1rlv3267_2 conn=wye bus1=p1rlv3267.2 kV=0.12 Vminpu=0.8 Vmaxpu=1.2 model=1 kva=6.30005 pf=1.0 Phases=1
New Load.load_p1rlv3268_1 conn=wye bus1=p1rlv3268.1 kV=0.12 Vminpu=0.8 Vmaxpu=1.2 model=1 kva=5.215050000000001 pf=1.0 Phases=1
New Load.load_p1rlv3270_1 conn=wye bus1=p1rlv3270.1 kV=0.12 Vminpu=0.8 Vmaxpu=1.2 model=1 kva=0.620005 pf=1.0 Phases=1
New Load.load_p1rlv3270_2 conn=wye bus1=p1rlv3270.2 kV=0.12 Vminpu=0.8 Vmaxpu=1.2 model=1 kva=0.620005 pf=1.0 Phases=1
New Load.load_p1rlv3271_2 conn=wye bus1=p1rlv3271.2 kV=0.12 Vminpu=0.8 Vmaxpu=1.2 model=1 kva=2.1000200000000007 pf=1.0 Phases=1
New Load.load_p1rlv3272_2 conn=wye bus1=p1rlv3272.2 kV=0.12 Vminpu=0.8 Vmaxpu=1.2 model=1 kva=3.720035 pf=1.0 Phases=1
New Load.load_p1rlv3273_1 conn=wye bus1=p1rlv3273.1 kV=0.12 Vminpu=0.8 Vmaxpu=1.2 model=1 kva=9.0951 pf=1.0 Phases=1
New Load.load_p1rlv3274_1 conn=wye bus1=p1rlv3274.1 kV=0.12 Vminpu=0.8 Vmaxpu=1.2 model=1 kva=7.6001 pf=1.0 Phases=1
New Load.load_p1rlv3275_1 conn=wye bus1=p1rlv3275.1 kV=0.12 Vminpu=0.8 Vmaxpu=1.2 model=1 kva=7.7701 pf=1.0 Phases=1
New Load.load_p1rlv3275_2 conn=wye bus1=p1rlv3275.2 kV=0.12 Vminpu=0.8 Vmaxpu=1.2 model=1 kva=7.7701 pf=1.0 Phases=1
New Load.load_p1rlv3276_1 conn=wye bus1=p1rlv3276.1 kV=0.12 Vminpu=0.8 Vmaxpu=1.2 model=1 kva=8.2051 pf=1.0 Phases=1
New Load.load_p1rlv3276_2 conn=wye bus1=p1rlv3276.2 kV=0.12 Vminpu=0.8 Vmaxpu=1.2 model=1 kva=8.2051 pf=1.0 Phases=1
New Load.load_p1rlv3277_1 conn=wye bus1=p1rlv3277.1 kV=0.12 Vminpu=0.8 Vmaxpu=1.2 model=1 kva=2.21002 pf=1.0 Phases=1
New Load.load_p1rlv3277_2 conn=wye bus1=p1rlv3277.2 kV=0.12 Vminpu=0.8 Vmaxpu=1.2 model=1 kva=2.21002 pf=1.0 Phases=1
New Load.load_p1rlv3278_2 conn=wye bus1=p1rlv3278.2 kV=0.12 Vminpu=0.8 Vmaxpu=1.2 model=1 kva=2.98003 pf=1.0 Phases=1
New Load.load_p1rlv3279_1 conn=wye bus1=p1rlv3279.1 kV=0.12 Vminpu=0.8 Vmaxpu=1.2 model=1 kva=0.685005 pf=1.0 Phases=1
New Load.load_p1rlv3279_2 conn=wye bus1=p1rlv3279.2 kV=0.12 Vminpu=0.8 Vmaxpu=1.2 model=1 kva=0.685005 pf=1.0 Phases=1
New Load.load_p1rlv3280_1 conn=wye bus1=p1rlv3280.1 kV=0.12 Vminpu=0.8 Vmaxpu=1.2 model=1 kva=0.565005 pf=1.0 Phases=1
New Load.load_p1rlv3280_2 conn=wye bus1=p1rlv3280.2 kV=0.12 Vminpu=0.8 Vmaxpu=1.2 model=1 kva=0.565005 pf=1.0 Phases=1
New Load.load_p1rlv3281_1 conn=wye bus1=p1rlv3281.1 kV=0.12 Vminpu=0.8 Vmaxpu=1.2 model=1 kva=0.190002 pf=1.0 Phases=1
New Load.load_p1rlv3281_2 conn=wye bus1=p1rlv3281.2 kV=0.12 Vminpu=0.8 Vmaxpu=1.2 model=1 kva=0.190002 pf=1.0 Phases=1
New Load.load_p1rlv4158_2 conn=wye bus1=p1rlv4158.2 kV=0.12 Vminpu=0.8 Vmaxpu=1.2 model=1 kva=4.385045 pf=1.0 Phases=1
New Load.load_p1rlv4159_2 conn=wye bus1=p1rlv4159.2 kV=0.12 Vminpu=0.8 Vmaxpu=1.2 model=1 kva=0.730005 pf=1.0 Phases=1
New Load.load_p1rlv4160_1 conn=wye bus1=p1rlv4160.1 kV=0.12 Vminpu=0.8 Vmaxpu=1.2 model=1 kva=0.375004 pf=1.0 Phases=1
New Load.load_p1rlv4160_2 conn=wye bus1=p1rlv4160.2 kV=0.12 Vminpu=0.8 Vmaxpu=1.2 model=1 kva=0.375004 pf=1.0 Phases=1
New Load.load_p1rlv6012_1 conn=wye bus1=p1rlv6012.1 kV=0.12 Vminpu=0.8 Vmaxpu=1.2 model=1 kva=0.405004 pf=1.0 Phases=1
New Load.load_p1rlv6012_2 conn=wye bus1=p1rlv6012.2 kV=0.12 Vminpu=0.8 Vmaxpu=1.2 model=1 kva=0.405004 pf=1.0 Phases=1
New Load.load_p1rlv6013_1 conn=wye bus1=p1rlv6013.1 kV=0.12 Vminpu=0.8 Vmaxpu=1.2 model=1 kva=0.81501 pf=1.0 Phases=1
New Load.load_p1rlv6013_2 conn=wye bus1=p1rlv6013.2 kV=0.12 Vminpu=0.8 Vmaxpu=1.2 model=1 kva=0.81501 pf=1.0 Phases=1
New Load.load_p1rlv6014_1 conn=wye bus1=p1rlv6014.1 kV=0.12 Vminpu=0.8 Vmaxpu=1.2 model=1 kva=0.3650035 pf=1.0 Phases=1
New Load.load_p1rlv6014_2 conn=wye bus1=p1rlv6014.2 kV=0.12 Vminpu=0.8 Vmaxpu=1.2 model=1 kva=0.3650035 pf=1.0 Phases=1
New Load.load_p1rlv6015_2 conn=wye bus1=p1rlv6015.2 kV=0.12 Vminpu=0.8 Vmaxpu=1.2 model=1 kva=0.610005 pf=1.0 Phases=1
New Load.load_p1rlv6029_1 conn=wye bus1=p1rlv6029.1 kV=0.12 Vminpu=0.8 Vmaxpu=1.2 model=1 kva=0.77001 pf=1.0 Phases=1
New Load.load_p1rlv6029_2 conn=wye bus1=p1rlv6029.2 kV=0.12 Vminpu=0.8 Vmaxpu=1.2 model=1 kva=0.77001 pf=1.0 Phases=1
New Load.load_p1rlv6031_1 conn=wye bus1=p1rlv6031.1 kV=0.12 Vminpu=0.8 Vmaxpu=1.2 model=1 kva=0.90501 pf=1.0 Phases=1
New Load.load_p1rlv6033_1 conn=wye bus1=p1rlv6033.1 kV=0.12 Vminpu=0.8 Vmaxpu=1.2 model=1 kva=1.03501 pf=1.0 Phases=1
New Load.load_p1rlv6033_2 conn=wye bus1=p1rlv6033.2 kV=0.12 Vminpu=0.8 Vmaxpu=1.2 model=1 kva=1.03501 pf=1.0 Phases=1
New Load.load_p1rlv6034_2 conn=wye bus1=p1rlv6034.2 kV=0.12 Vminpu=0.8 Vmaxpu=1.2 model=1 kva=0.715005 pf=1.0 Phases=1
New Load.load_p1rlv6035_2 conn=wye bus1=p1rlv6035.2 kV=0.12 Vminpu=0.8 Vmaxpu=1.2 model=1 kva=0.85001 pf=1.0 Phases=1
New Load.load_p1rlv6036_1 conn=wye bus1=p1rlv6036.1 kV=0.12 Vminpu=0.8 Vmaxpu=1.2 model=1 kva=0.645005 pf=1.0 Phases=1
New Load.load_p1rlv6037_1 conn=wye bus1=p1rlv6037.1 kV=0.12 Vminpu=0.8 Vmaxpu=1.2 model=1 kva=1.88002 pf=1.0 Phases=1
New Load.load_p1rlv6037_2 conn=wye bus1=p1rlv6037.2 kV=0.12 Vminpu=0.8 Vmaxpu=1.2 model=1 kva=1.88002 pf=1.0 Phases=1
New Load.load_p1rlv6038_1 conn=wye bus1=p1rlv6038.1 kV=0.12 Vminpu=0.8 Vmaxpu=1.2 model=1 kva=0.545005 pf=1.0 Phases=1
New Load.load_p1rlv6038_2 conn=wye bus1=p1rlv6038.2 kV=0.12 Vminpu=0.8 Vmaxpu=1.2 model=1 kva=0.545005 pf=1.0 Phases=1
New Load.load_p1rlv6039_2 conn=wye bus1=p1rlv6039.2 kV=0.12 Vminpu=0.8 Vmaxpu=1.2 model=1 kva=0.4350045 pf=1.0 Phases=1
New Load.load_p1rlv6051_2 conn=wye bus1=p1rlv6051.2 kV=0.12 Vminpu=0.8 Vmaxpu=1.2 model=1 kva=0.4300045 pf=1.0 Phases=1
New Load.load_p1rlv6052_1 conn=wye bus1=p1rlv6052.1 kV=0.12 Vminpu=0.8 Vmaxpu=1.2 model=1 kva=0.4350045 pf=1.0 Phases=1
New Load.load_p1rlv6052_2 conn=wye bus1=p1rlv6052.2 kV=0.12 Vminpu=0.8 Vmaxpu=1.2 model=1 kva=0.4350045 pf=1.0 Phases=1
New Load.load_p1rlv6055_1 conn=wye bus1=p1rlv6055.1 kV=0.12 Vminpu=0.8 Vmaxpu=1.2 model=1 kva=0.545005 pf=1.0 Phases=1
New Load.load_p1rlv6055_2 conn=wye bus1=p1rlv6055.2 kV=0.12 Vminpu=0.8 Vmaxpu=1.2 model=1 kva=0.545005 pf=1.0 Phases=1
New Load.load_p1rlv6056_1 conn=wye bus1=p1rlv6056.1 kV=0.12 Vminpu=0.8 Vmaxpu=1.2 model=1 kva=0.4700045 pf=1.0 Phases=1
New Load.load_p1rlv6057_1 conn=wye bus1=p1rlv6057.1 kV=0.12 Vminpu=0.8 Vmaxpu=1.2 model=1 kva=1.97502 pf=1.0 Phases=1
New Load.load_p1rlv6058_1 conn=wye bus1=p1rlv6058.1 kV=0.12 Vminpu=0.8 Vmaxpu=1.2 model=1 kva=1.11001 pf=1.0 Phases=1
New Load.load_p1rlv6058_2 conn=wye bus1=p1rlv6058.2 kV=0.12 Vminpu=0.8 Vmaxpu=1.2 model=1 kva=1.11001 pf=1.0 Phases=1
New Load.load_p1rlv6059_2 conn=wye bus1=p1rlv6059.2 kV=0.12 Vminpu=0.8 Vmaxpu=1.2 model=1 kva=1.05501 pf=1.0 Phases=1
New Load.load_p1rlv6060_1 conn=wye bus1=p1rlv6060.1 kV=0.12 Vminpu=0.8 Vmaxpu=1.2 model=1 kva=0.420004 pf=1.0 Phases=1
New Load.load_p1rlv6060_2 conn=wye bus1=p1rlv6060.2 kV=0.12 Vminpu=0.8 Vmaxpu=1.2 model=1 kva=0.420004 pf=1.0 Phases=1
New Load.load_p1rlv6061_1 conn=wye bus1=p1rlv6061.1 kV=0.12 Vminpu=0.8 Vmaxpu=1.2 model=1 kva=0.570005 pf=1.0 Phases=1
New Load.load_p1rlv6061_2 conn=wye bus1=p1rlv6061.2 kV=0.12 Vminpu=0.8 Vmaxpu=1.2 model=1 kva=0.570005 pf=1.0 Phases=1
New Load.load_p1rlv6062_2 conn=wye bus1=p1rlv6062.2 kV=0.12 Vminpu=0.8 Vmaxpu=1.2 model=1 kva=0.92001 pf=1.0 Phases=1
New Load.load_p1rlv6072_1 conn=wye bus1=p1rlv6072.1 kV=0.12 Vminpu=0.8 Vmaxpu=1.2 model=1 kva=0.590005 pf=1.0 Phases=1
New Load.load_p1rlv6072_2 conn=wye bus1=p1rlv6072.2 kV=0.12 Vminpu=0.8 Vmaxpu=1.2 model=1 kva=0.590005 pf=1.0 Phases=1
New Load.load_p1rlv6074_2 conn=wye bus1=p1rlv6074.2 kV=0.12 Vminpu=0.8 Vmaxpu=1.2 model=1 kva=1.04501 pf=1.0 Phases=1
New Load.load_p1rlv6075_1 conn=wye bus1=p1rlv6075.1 kV=0.12 Vminpu=0.8 Vmaxpu=1.2 model=1 kva=0.4450045 pf=1.0 Phases=1
New Load.load_p1rlv6075_2 conn=wye bus1=p1rlv6075.2 kV=0.12 Vminpu=0.8 Vmaxpu=1.2 model=1 kva=0.4450045 pf=1.0 Phases=1
New Load.load_p1rlv6076_1 conn=wye bus1=p1rlv6076.1 kV=0.12 Vminpu=0.8 Vmaxpu=1.2 model=1 kva=0.645005 pf=1.0 Phases=1
New Load.load_p1rlv6076_2 conn=wye bus1=p1rlv6076.2 kV=0.12 Vminpu=0.8 Vmaxpu=1.2 model=1 kva=0.645005 pf=1.0 Phases=1
New Load.load_p1rlv6077_1 conn=wye bus1=p1rlv6077.1 kV=0.12 Vminpu=0.8 Vmaxpu=1.2 model=1 kva=0.4350045 pf=1.0 Phases=1
New Load.load_p1rlv6078_1 conn=wye bus1=p1rlv6078.1 kV=0.12 Vminpu=0.8 Vmaxpu=1.2 model=1 kva=0.83501 pf=1.0 Phases=1
New Load.load_p1rlv6078_2 conn=wye bus1=p1rlv6078.2 kV=0.12 Vminpu=0.8 Vmaxpu=1.2 model=1 kva=0.83501 pf=1.0 Phases=1
New Load.load_p1rlv6079_1 conn=wye bus1=p1rlv6079.1 kV=0.12 Vminpu=0.8 Vmaxpu=1.2 model=1 kva=0.620005 pf=1.0 Phases=1
New Load.load_p1rlv6080_1 conn=wye bus1=p1rlv6080.1 kV=0.12 Vminpu=0.8 Vmaxpu=1.2 model=1 kva=0.90501 pf=1.0 Phases=1
New Load.load_p1rlv6080_2 conn=wye bus1=p1rlv6080.2 kV=0.12 Vminpu=0.8 Vmaxpu=1.2 model=1 kva=0.90501 pf=1.0 Phases=1
New Load.load_p1rlv6081_1 conn=wye bus1=p1rlv6081.1 kV=0.12 Vminpu=0.8 Vmaxpu=1.2 model=1 kva=0.570005 pf=1.0 Phases=1
New Load.load_p1rlv6081_2 conn=wye bus1=p1rlv6081.2 kV=0.12 Vminpu=0.8 Vmaxpu=1.2 model=1 kva=0.570005 pf=1.0 Phases=1
New Load.load_p1rlv6082_1 conn=wye bus1=p1rlv6082.1 kV=0.12 Vminpu=0.8 Vmaxpu=1.2 model=1 kva=5.52505 pf=1.0 Phases=1
New Load.load_p1rlv6082_2 conn=wye bus1=p1rlv6082.2 kV=0.12 Vminpu=0.8 Vmaxpu=1.2 model=1 kva=5.52505 pf=1.0 Phases=1
New Load.load_p1rlv6083_1 conn=wye bus1=p1rlv6083.1 kV=0.12 Vminpu=0.8 Vmaxpu=1.2 model=1 kva=4.17504 pf=1.0 Phases=1
New Load.load_p1rlv6083_2 conn=wye bus1=p1rlv6083.2 kV=0.12 Vminpu=0.8 Vmaxpu=1.2 model=1 kva=4.17504 pf=1.0 Phases=1
New Load.load_p1rlv6086_2 conn=wye bus1=p1rlv6086.2 kV=0.12 Vminpu=0.8 Vmaxpu=1.2 model=1 kva=1.480015 pf=1.0 Phases=1
New Load.load_p1rlv6087_1 conn=wye bus1=p1rlv6087.1 kV=0.12 Vminpu=0.8 Vmaxpu=1.2 model=1 kva=1.11501 pf=1.0 Phases=1
New Load.load_p1rlv6088_1 conn=wye bus1=p1rlv6088.1 kV=0.12 Vminpu=0.8 Vmaxpu=1.2 model=1 kva=0.610005 pf=1.0 Phases=1
New Load.load_p1rlv6089_1 conn=wye bus1=p1rlv6089.1 kV=0.12 Vminpu=0.8 Vmaxpu=1.2 model=1 kva=1.75002 pf=1.0 Phases=1
New Load.load_p1rlv6090_2 conn=wye bus1=p1rlv6090.2 kV=0.12 Vminpu=0.8 Vmaxpu=1.2 model=1 kva=1.600015 pf=1.0 Phases=1
New Load.load_p1rlv6516_2 conn=wye bus1=p1rlv6516.2 kV=0.12 Vminpu=0.8 Vmaxpu=1.2 model=1 kva=0.8650100000000001 pf=1.0 Phases=1
New Load.load_p1rlv6517_1 conn=wye bus1=p1rlv6517.1 kV=0.12 Vminpu=0.8 Vmaxpu=1.2 model=1 kva=0.85001 pf=1.0 Phases=1
New Load.load_p1rlv6517_2 conn=wye bus1=p1rlv6517.2 kV=0.12 Vminpu=0.8 Vmaxpu=1.2 model=1 kva=0.85001 pf=1.0 Phases=1
New Load.load_p1rlv6518_1 conn=wye bus1=p1rlv6518.1 kV=0.12 Vminpu=0.8 Vmaxpu=1.2 model=1 kva=5.61505 pf=1.0 Phases=1
New Load.load_p1rlv6518_2 conn=wye bus1=p1rlv6518.2 kV=0.12 Vminpu=0.8 Vmaxpu=1.2 model=1 kva=5.61505 pf=1.0 Phases=1
New Load.load_p1rlv6530_1 conn=wye bus1=p1rlv6530.1 kV=0.12 Vminpu=0.8 Vmaxpu=1.2 model=1 kva=9.5701 pf=1.0 Phases=1
New Load.load_p1rlv6531_1 conn=wye bus1=p1rlv6531.1 kV=0.12 Vminpu=0.8 Vmaxpu=1.2 model=1 kva=5.98505 pf=1.0 Phases=1
New Load.load_p1rlv6532_1 conn=wye bus1=p1rlv6532.1 kV=0.12 Vminpu=0.8 Vmaxpu=1.2 model=1 kva=2.89503 pf=1.0 Phases=1
New Load.load_p1rlv6532_2 conn=wye bus1=p1rlv6532.2 kV=0.12 Vminpu=0.8 Vmaxpu=1.2 model=1 kva=2.89503 pf=1.0 Phases=1
New Load.load_p1rlv6533_1 conn=wye bus1=p1rlv6533.1 kV=0.12 Vminpu=0.8 Vmaxpu=1.2 model=1 kva=0.4750045 pf=1.0 Phases=1
New Load.load_p1rlv6533_2 conn=wye bus1=p1rlv6533.2 kV=0.12 Vminpu=0.8 Vmaxpu=1.2 model=1 kva=0.4750045 pf=1.0 Phases=1
New Load.load_p1rlv6534 conn=wye bus1=p1rlv6534.1.2.3 kV=0.48 Vminpu=0.8 Vmaxpu=1.2 model=1 kva=96.581 pf=1.0 Phases=3
New Load.load_p1rlv6535_1 conn=wye bus1=p1rlv6535.1 kV=0.12 Vminpu=0.8 Vmaxpu=1.2 model=1 kva=1.2550150000000002 pf=1.0 Phases=1
New Load.load_p1rlv6535_2 conn=wye bus1=p1rlv6535.2 kV=0.12 Vminpu=0.8 Vmaxpu=1.2 model=1 kva=1.2550150000000002 pf=1.0 Phases=1
New Load.load_p1rlv6536_1 conn=wye bus1=p1rlv6536.1 kV=0.12 Vminpu=0.8 Vmaxpu=1.2 model=1 kva=0.8600100000000002 pf=1.0 Phases=1
New Load.load_p1rlv6537_1 conn=wye bus1=p1rlv6537.1 kV=0.12 Vminpu=0.8 Vmaxpu=1.2 model=1 kva=0.84501 pf=1.0 Phases=1
New Load.load_p1rlv6538_1 conn=wye bus1=p1rlv6538.1 kV=0.12 Vminpu=0.8 Vmaxpu=1.2 model=1 kva=1.05501 pf=1.0 Phases=1
New Load.load_p1rlv6539_1 conn=wye bus1=p1rlv6539.1 kV=0.12 Vminpu=0.8 Vmaxpu=1.2 model=1 kva=0.620005 pf=1.0 Phases=1
New Load.load_p1rlv6540_1 conn=wye bus1=p1rlv6540.1 kV=0.12 Vminpu=0.8 Vmaxpu=1.2 model=1 kva=0.540005 pf=1.0 Phases=1
New Load.load_p1rlv6540_2 conn=wye bus1=p1rlv6540.2 kV=0.12 Vminpu=0.8 Vmaxpu=1.2 model=1 kva=0.540005 pf=1.0 Phases=1
New Load.load_p1rlv6541_1 conn=wye bus1=p1rlv6541.1 kV=0.12 Vminpu=0.8 Vmaxpu=1.2 model=1 kva=0.4750045 pf=1.0 Phases=1
New Load.load_p1rlv6541_2 conn=wye bus1=p1rlv6541.2 kV=0.12 Vminpu=0.8 Vmaxpu=1.2 model=1 kva=0.4750045 pf=1.0 Phases=1
New Load.load_p1rlv6543_1 conn=wye bus1=p1rlv6543.1 kV=0.12 Vminpu=0.8 Vmaxpu=1.2 model=1 kva=0.9850100000000002 pf=1.0 Phases=1
New Load.load_p1rlv6543_2 conn=wye bus1=p1rlv6543.2 kV=0.12 Vminpu=0.8 Vmaxpu=1.2 model=1 kva=0.9850100000000002 pf=1.0 Phases=1
New Load.load_p1rlv6544_1 conn=wye bus1=p1rlv6544.1 kV=0.12 Vminpu=0.8 Vmaxpu=1.2 model=1 kva=0.740005 pf=1.0 Phases=1
New Load.load_p1rlv6544_2 conn=wye bus1=p1rlv6544.2 kV=0.12 Vminpu=0.8 Vmaxpu=1.2 model=1 kva=0.740005 pf=1.0 Phases=1
New Load.load_p1rlv6546_1 conn=wye bus1=p1rlv6546.1 kV=0.12 Vminpu=0.8 Vmaxpu=1.2 model=1 kva=1.705015 pf=1.0 Phases=1
New Load.load_p1rlv6546_2 conn=wye bus1=p1rlv6546.2 kV=0.12 Vminpu=0.8 Vmaxpu=1.2 model=1 kva=1.705015 pf=1.0 Phases=1
New Load.load_p1rlv6547_1 conn=wye bus1=p1rlv6547.1 kV=0.12 Vminpu=0.8 Vmaxpu=1.2 model=1 kva=2.22002 pf=1.0 Phases=1
New Load.load_p1rlv6547_2 conn=wye bus1=p1rlv6547.2 kV=0.12 Vminpu=0.8 Vmaxpu=1.2 model=1 kva=2.22002 pf=1.0 Phases=1
New Load.load_p1rlv6548_1 conn=wye bus1=p1rlv6548.1 kV=0.12 Vminpu=0.8 Vmaxpu=1.2 model=1 kva=0.79001 pf=1.0 Phases=1
New Load.load_p1rlv6549_2 conn=wye bus1=p1rlv6549.2 kV=0.12 Vminpu=0.8 Vmaxpu=1.2 model=1 kva=1.01001 pf=1.0 Phases=1
New Load.load_p1rlv6550_2 conn=wye bus1=p1rlv6550.2 kV=0.12 Vminpu=0.8 Vmaxpu=1.2 model=1 kva=0.695005 pf=1.0 Phases=1
New Load.load_p1rlv6551_1 conn=wye bus1=p1rlv6551.1 kV=0.12 Vminpu=0.8 Vmaxpu=1.2 model=1 kva=1.10001 pf=1.0 Phases=1
New Load.load_p1rlv6553_1 conn=wye bus1=p1rlv6553.1 kV=0.12 Vminpu=0.8 Vmaxpu=1.2 model=1 kva=1.330015 pf=1.0 Phases=1
New Load.load_p1rlv6553_2 conn=wye bus1=p1rlv6553.2 kV=0.12 Vminpu=0.8 Vmaxpu=1.2 model=1 kva=1.330015 pf=1.0 Phases=1
New Load.load_p1rlv6554_1 conn=wye bus1=p1rlv6554.1 kV=0.12 Vminpu=0.8 Vmaxpu=1.2 model=1 kva=1.705015 pf=1.0 Phases=1
New Load.load_p1rlv6565_1 conn=wye bus1=p1rlv6565.1 kV=0.12 Vminpu=0.8 Vmaxpu=1.2 model=1 kva=0.82501 pf=1.0 Phases=1
New Load.load_p1rlv6566_1 conn=wye bus1=p1rlv6566.1 kV=0.12 Vminpu=0.8 Vmaxpu=1.2 model=1 kva=0.320003 pf=1.0 Phases=1
New Load.load_p1rlv6568_1 conn=wye bus1=p1rlv6568.1 kV=0.12 Vminpu=0.8 Vmaxpu=1.2 model=1 kva=2.250025 pf=1.0 Phases=1
New Load.load_p1rlv6568_2 conn=wye bus1=p1rlv6568.2 kV=0.12 Vminpu=0.8 Vmaxpu=1.2 model=1 kva=2.250025 pf=1.0 Phases=1
New Load.load_p1rlv6569_2 conn=wye bus1=p1rlv6569.2 kV=0.12 Vminpu=0.8 Vmaxpu=1.2 model=1 kva=1.10501 pf=1.0 Phases=1
New Load.load_p1rlv6570_1 conn=wye bus1=p1rlv6570.1 kV=0.12 Vminpu=0.8 Vmaxpu=1.2 model=1 kva=1.290015 pf=1.0 Phases=1
New Load.load_p1rlv6570_2 conn=wye bus1=p1rlv6570.2 kV=0.12 Vminpu=0.8 Vmaxpu=1.2 model=1 kva=1.290015 pf=1.0 Phases=1
New Load.load_p1rlv6571_1 conn=wye bus1=p1rlv6571.1 kV=0.12 Vminpu=0.8 Vmaxpu=1.2 model=1 kva=0.5250050000000002 pf=1.0 Phases=1
New Load.load_p1rlv6571_2 conn=wye bus1=p1rlv6571.2 kV=0.12 Vminpu=0.8 Vmaxpu=1.2 model=1 kva=0.5250050000000002 pf=1.0 Phases=1
New Load.load_p1rlv6572_1 conn=wye bus1=p1rlv6572.1 kV=0.12 Vminpu=0.8 Vmaxpu=1.2 model=1 kva=0.94501 pf=1.0 Phases=1
New Load.load_p1rlv6572_2 conn=wye bus1=p1rlv6572.2 kV=0.12 Vminpu=0.8 Vmaxpu=1.2 model=1 kva=0.94501 pf=1.0 Phases=1
New Load.load_p1rlv6573_1 conn=wye bus1=p1rlv6573.1 kV=0.12 Vminpu=0.8 Vmaxpu=1.2 model=1 kva=2.2450200000000002 pf=1.0 Phases=1
New Load.load_p1rlv6573_2 conn=wye bus1=p1rlv6573.2 kV=0.12 Vminpu=0.8 Vmaxpu=1.2 model=1 kva=2.2450200000000002 pf=1.0 Phases=1
...