PyDSS/api/src/tmp_pydss_project/project1/DSSfiles/218672ac-d416-4e9f-8578-0d2a531aa33c_distribution_federate/Motors_new.dss
New Load.motor_load_p1rlv3261 conn=wye bus1=p1rlv3261.1.2.3 kV=0.48 kW=1.2573810779883046 kvar=0.2514762155976609 Phases=3 Vminpu=0.0 Vmaxpu=1.2 model=1
New Load.motor_load_p1rlv3263_1 conn=wye bus1=p1rlv3263.1 kV=0.12 kW=1.2511448631845732 kvar=0.2502289726369146 Phases=1 Vminpu=0.0 Vmaxpu=1.2 model=1
New Load.motor_load_p1rlv3263_2 conn=wye bus1=p1rlv3263.2 kV=0.12 kW=1.1841896915247487 kvar=0.23683793830494976 Phases=1 Vminpu=0.0 Vmaxpu=1.2 model=1
New Load.motor_load_p1rlv3264 conn=wye bus1=p1rlv3264.1.2.3 kV=0.48 kW=1.0760990170696936 kvar=0.21521980341393873 Phases=3 Vminpu=0.0 Vmaxpu=1.2 model=1
New Load.motor_load_p1rlv3265 conn=wye bus1=p1rlv3265.1.2.3 kV=0.48 kW=1.2232263697047925 kvar=0.2446452739409585 Phases=3 Vminpu=0.0 Vmaxpu=1.2 model=1
New Load.motor_load_p1rlv3267_1 conn=wye bus1=p1rlv3267.1 kV=0.12 kW=1.2116652162906294 kvar=0.24233304325812588 Phases=1 Vminpu=0.0 Vmaxpu=1.2 model=1
New Load.motor_load_p1rlv3268_2 conn=wye bus1=p1rlv3268.2 kV=0.12 kW=1.1696191446225854 kvar=0.2339238289245171 Phases=1 Vminpu=0.0 Vmaxpu=1.2 model=1
New Load.motor_load_p1rlv3269 conn=wye bus1=p1rlv3269.1.2.3 kV=0.48 kW=1.1818647106202178 kvar=0.23637294212404358 Phases=3 Vminpu=0.0 Vmaxpu=1.2 model=1
New Load.motor_load_p1rlv3271_1 conn=wye bus1=p1rlv3271.1 kV=0.12 kW=1.194196720391662 kvar=0.2388393440783324 Phases=1 Vminpu=0.0 Vmaxpu=1.2 model=1
New Load.motor_load_p1rlv3272_1 conn=wye bus1=p1rlv3272.1 kV=0.12 kW=1.076082443324185 kvar=0.215216488664837 Phases=1 Vminpu=0.0 Vmaxpu=1.2 model=1
New Load.motor_load_p1rlv3273_2 conn=wye bus1=p1rlv3273.2 kV=0.12 kW=1.2113962288829592 kvar=0.24227924577659185 Phases=1 Vminpu=0.0 Vmaxpu=1.2 model=1
New Load.motor_load_p1rlv3274_2 conn=wye bus1=p1rlv3274.2 kV=0.12 kW=1.056417356916185 kvar=0.211283471383237 Phases=1 Vminpu=0.0 Vmaxpu=1.2 model=1
New Load.motor_load_p1rlv3278_1 conn=wye bus1=p1rlv3278.1 kV=0.12 kW=1.116573087134182 kvar=0.2233146174268364 Phases=1 Vminpu=0.0 Vmaxpu=1.2 model=1
New Load.motor_load_p1rlv4158_1 conn=wye bus1=p1rlv4158.1 kV=0.12 kW=1.0987470940053419 kvar=0.21974941880106838 Phases=1 Vminpu=0.0 Vmaxpu=1.2 model=1
New Load.motor_load_p1rlv4159_1 conn=wye bus1=p1rlv4159.1 kV=0.12 kW=1.0532410911150456 kvar=0.21064821822300914 Phases=1 Vminpu=0.0 Vmaxpu=1.2 model=1
New Load.motor_load_p1rlv4161_1 conn=wye bus1=p1rlv4161.1 kV=0.12 kW=1.1335332925912827 kvar=0.22670665851825655 Phases=1 Vminpu=0.0 Vmaxpu=1.2 model=1
New Load.motor_load_p1rlv4161_2 conn=wye bus1=p1rlv4161.2 kV=0.12 kW=1.0727058848464497 kvar=0.21454117696928995 Phases=1 Vminpu=0.0 Vmaxpu=1.2 model=1
New Load.motor_load_p1rlv6015_1 conn=wye bus1=p1rlv6015.1 kV=0.12 kW=1.194796765728813 kvar=0.2389593531457626 Phases=1 Vminpu=0.0 Vmaxpu=1.2 model=1
New Load.motor_load_p1rlv6016_1 conn=wye bus1=p1rlv6016.1 kV=0.12 kW=1.1157455478117146 kvar=0.22314910956234293 Phases=1 Vminpu=0.0 Vmaxpu=1.2 model=1
New Load.motor_load_p1rlv6016_2 conn=wye bus1=p1rlv6016.2 kV=0.12 kW=1.0932914163865564 kvar=0.2186582832773113 Phases=1 Vminpu=0.0 Vmaxpu=1.2 model=1
New Load.motor_load_p1rlv6030_1 conn=wye bus1=p1rlv6030.1 kV=0.12 kW=1.073862649779666 kvar=0.2147725299559332 Phases=1 Vminpu=0.0 Vmaxpu=1.2 model=1
New Load.motor_load_p1rlv6030_2 conn=wye bus1=p1rlv6030.2 kV=0.12 kW=1.0542626721105874 kvar=0.2108525344221175 Phases=1 Vminpu=0.0 Vmaxpu=1.2 model=1
New Load.motor_load_p1rlv6031_2 conn=wye bus1=p1rlv6031.2 kV=0.12 kW=1.2173206264678778 kvar=0.24346412529357556 Phases=1 Vminpu=0.0 Vmaxpu=1.2 model=1
New Load.motor_load_p1rlv6034_1 conn=wye bus1=p1rlv6034.1 kV=0.12 kW=1.0815159976959436 kvar=0.21630319953918875 Phases=1 Vminpu=0.0 Vmaxpu=1.2 model=1
New Load.motor_load_p1rlv6035_1 conn=wye bus1=p1rlv6035.1 kV=0.12 kW=1.1054416051889995 kvar=0.2210883210377999 Phases=1 Vminpu=0.0 Vmaxpu=1.2 model=1
New Load.motor_load_p1rlv6036_2 conn=wye bus1=p1rlv6036.2 kV=0.12 kW=1.0901370923247933 kvar=0.21802741846495866 Phases=1 Vminpu=0.0 Vmaxpu=1.2 model=1
New Load.motor_load_p1rlv6039_1 conn=wye bus1=p1rlv6039.1 kV=0.12 kW=1.2392372027711576 kvar=0.24784744055423152 Phases=1 Vminpu=0.0 Vmaxpu=1.2 model=1
New Load.motor_load_p1rlv6051_1 conn=wye bus1=p1rlv6051.1 kV=0.12 kW=1.1680758625328436 kvar=0.2336151725065687 Phases=1 Vminpu=0.0 Vmaxpu=1.2 model=1
New Load.motor_load_p1rlv6053_1 conn=wye bus1=p1rlv6053.1 kV=0.12 kW=1.1637393567724899 kvar=0.23274787135449798 Phases=1 Vminpu=0.0 Vmaxpu=1.2 model=1
New Load.motor_load_p1rlv6053_2 conn=wye bus1=p1rlv6053.2 kV=0.12 kW=1.2051051649800586 kvar=0.24102103299601174 Phases=1 Vminpu=0.0 Vmaxpu=1.2 model=1
New Load.motor_load_p1rlv6054_1 conn=wye bus1=p1rlv6054.1 kV=0.12 kW=1.0703967529476968 kvar=0.21407935058953936 Phases=1 Vminpu=0.0 Vmaxpu=1.2 model=1
New Load.motor_load_p1rlv6054_2 conn=wye bus1=p1rlv6054.2 kV=0.12 kW=1.1117651583089485 kvar=0.2223530316617897 Phases=1 Vminpu=0.0 Vmaxpu=1.2 model=1
New Load.motor_load_p1rlv6056_2 conn=wye bus1=p1rlv6056.2 kV=0.12 kW=1.0727383423564225 kvar=0.2145476684712845 Phases=1 Vminpu=0.0 Vmaxpu=1.2 model=1
...